# generated using pymatgen
data_NaCaMg2Be2Nb6O4
_symmetry_space_group_name_H-M   'P 1'
_cell_length_a   10.4037
_cell_length_b   10.4037
_cell_length_c   10.4037
_cell_angle_alpha   90.00000000
_cell_angle_beta   90.00000000
_cell_angle_gamma   90.00000000
_symmetry_Int_Tables_number   1
_chemical_formula_structural   NaCaMg2Be2Nb6O4
_chemical_formula_sum   'Na8 Ca8 Mg16 Be16 Nb48 O32'
_cell_volume   1126.0650
_cell_formula_units_Z   8
loop_
 _symmetry_equiv_pos_site_id
 _symmetry_equiv_pos_as_xyz
  1  'x, y, z'
loop_
 _atom_site_type_symbol
 _atom_site_label
 _atom_site_symmetry_multiplicity
 _atom_site_fract_x
 _atom_site_fract_y
 _atom_site_fract_z
 _atom_site_occupancy
  Na  Na0  1  0.37500000  0.37500000  0.37500000  1.0
  Na  Na1  1  0.87500000  0.87500000  0.37500000  1.0
  Na  Na2  1  0.87500000  0.37500000  0.87500000  1.0
  Na  Na3  1  0.37500000  0.87500000  0.87500000  1.0
  Na  Na4  1  0.62500000  0.62500000  0.62500000  1.0
  Na  Na5  1  0.12500000  0.12500000  0.62500000  1.0
  Na  Na6  1  0.12500000  0.62500000  0.12500000  1.0
  Na  Na7  1  0.62500000  0.12500000  0.12500000  1.0
  Ca  Ca8  1  0.87500000  0.87500000  0.87500000  1
  Ca  Ca9  1  0.37500000  0.37500000  0.87500000  1
  Ca  Ca10  1  0.37500000  0.87500000  0.37500000  1
  Ca  Ca11  1  0.87500000  0.37500000  0.37500000  1
  Ca  Ca12  1  0.12500000  0.12500000  0.12500000  1
  Ca  Ca13  1  0.62500000  0.62500000  0.12500000  1
  Ca  Ca14  1  0.62500000  0.12500000  0.62500000  1
  Ca  Ca15  1  0.12500000  0.62500000  0.62500000  1
  Mg  Mg16  1  0.50000000  0.50000000  0.50000000  1.0
  Mg  Mg17  1  0.00000000  0.00000000  0.50000000  1.0
  Mg  Mg18  1  0.00000000  0.50000000  0.00000000  1.0
  Mg  Mg19  1  0.50000000  0.00000000  0.00000000  1.0
  Mg  Mg20  1  0.50000000  0.25000000  0.25000000  1.0
  Mg  Mg21  1  0.00000000  0.75000000  0.25000000  1.0
  Mg  Mg22  1  0.00000000  0.25000000  0.75000000  1.0
  Mg  Mg23  1  0.50000000  0.75000000  0.75000000  1.0
  Mg  Mg24  1  0.25000000  0.50000000  0.25000000  1.0
  Mg  Mg25  1  0.75000000  0.00000000  0.25000000  1.0
  Mg  Mg26  1  0.75000000  0.50000000  0.75000000  1.0
  Mg  Mg27  1  0.25000000  0.00000000  0.75000000  1.0
  Mg  Mg28  1  0.25000000  0.25000000  0.50000000  1.0
  Mg  Mg29  1  0.75000000  0.75000000  0.50000000  1.0
  Mg  Mg30  1  0.75000000  0.25000000  0.00000000  1.0
  Mg  Mg31  1  0.25000000  0.75000000  0.00000000  1.0
  Be  Be32  1  0.25000000  0.25000000  0.00000000  1.0
  Be  Be33  1  0.75000000  0.75000000  0.00000000  1.0
  Be  Be34  1  0.75000000  0.25000000  0.50000000  1.0
  Be  Be35  1  0.25000000  0.75000000  0.50000000  1.0
  Be  Be36  1  0.25000000  0.00000000  0.25000000  1.0
  Be  Be37  1  0.75000000  0.50000000  0.25000000  1.0
  Be  Be38  1  0.75000000  0.00000000  0.75000000  1.0
  Be  Be39  1  0.25000000  0.50000000  0.75000000  1.0
  Be  Be40  1  0.00000000  0.25000000  0.25000000  1.0
  Be  Be41  1  0.50000000  0.75000000  0.25000000  1.0
  Be  Be42  1  0.50000000  0.25000000  0.75000000  1.0
  Be  Be43  1  0.00000000  0.75000000  0.75000000  1.0
  Be  Be44  1  0.00000000  0.00000000  0.00000000  1.0
  Be  Be45  1  0.50000000  0.50000000  0.00000000  1.0
  Be  Be46  1  0.50000000  0.00000000  0.50000000  1.0
  Be  Be47  1  0.00000000  0.50000000  0.50000000  1.0
  Nb  Nb48  1  0.87500000  0.62500000  0.62500000  1.0
  Nb  Nb49  1  0.37500000  0.12500000  0.62500000  1.0
  Nb  Nb50  1  0.37500000  0.62500000  0.12500000  1.0
  Nb  Nb51  1  0.87500000  0.12500000  0.12500000  1.0
  Nb  Nb52  1  0.62500000  0.87500000  0.62500000  1.0
  Nb  Nb53  1  0.12500000  0.37500000  0.62500000  1.0
  Nb  Nb54  1  0.12500000  0.87500000  0.12500000  1.0
  Nb  Nb55  1  0.62500000  0.37500000  0.12500000  1.0
  Nb  Nb56  1  0.62500000  0.62500000  0.37500000  1.0
  Nb  Nb57  1  0.12500000  0.12500000  0.37500000  1.0
  Nb  Nb58  1  0.12500000  0.62500000  0.87500000  1.0
  Nb  Nb59  1  0.62500000  0.12500000  0.87500000  1.0
  Nb  Nb60  1  0.62500000  0.62500000  0.87500000  1.0
  Nb  Nb61  1  0.12500000  0.12500000  0.87500000  1.0
  Nb  Nb62  1  0.12500000  0.62500000  0.37500000  1.0
  Nb  Nb63  1  0.62500000  0.12500000  0.37500000  1.0
  Nb  Nb64  1  0.62500000  0.37500000  0.62500000  1.0
  Nb  Nb65  1  0.12500000  0.87500000  0.62500000  1.0
  Nb  Nb66  1  0.12500000  0.37500000  0.12500000  1.0
  Nb  Nb67  1  0.62500000  0.87500000  0.12500000  1.0
  Nb  Nb68  1  0.37500000  0.62500000  0.62500000  1.0
  Nb  Nb69  1  0.87500000  0.12500000  0.62500000  1.0
  Nb  Nb70  1  0.87500000  0.62500000  0.12500000  1.0
  Nb  Nb71  1  0.37500000  0.12500000  0.12500000  1.0
  Nb  Nb72  1  0.62500000  0.37500000  0.37500000  1.0
  Nb  Nb73  1  0.12500000  0.87500000  0.37500000  1.0
  Nb  Nb74  1  0.12500000  0.37500000  0.87500000  1.0
  Nb  Nb75  1  0.62500000  0.87500000  0.87500000  1.0
  Nb  Nb76  1  0.37500000  0.62500000  0.37500000  1.0
  Nb  Nb77  1  0.87500000  0.12500000  0.37500000  1.0
  Nb  Nb78  1  0.87500000  0.62500000  0.87500000  1.0
  Nb  Nb79  1  0.37500000  0.12500000  0.87500000  1.0
  Nb  Nb80  1  0.37500000  0.37500000  0.12500000  1.0
  Nb  Nb81  1  0.87500000  0.87500000  0.12500000  1.0
  Nb  Nb82  1  0.87500000  0.37500000  0.62500000  1.0
  Nb  Nb83  1  0.37500000  0.87500000  0.62500000  1.0
  Nb  Nb84  1  0.37500000  0.37500000  0.62500000  1.0
  Nb  Nb85  1  0.87500000  0.87500000  0.62500000  1.0
  Nb  Nb86  1  0.87500000  0.37500000  0.12500000  1.0
  Nb  Nb87  1  0.37500000  0.87500000  0.12500000  1.0
  Nb  Nb88  1  0.37500000  0.12500000  0.37500000  1.0
  Nb  Nb89  1  0.87500000  0.62500000  0.37500000  1.0
  Nb  Nb90  1  0.87500000  0.12500000  0.87500000  1.0
  Nb  Nb91  1  0.37500000  0.62500000  0.87500000  1.0
  Nb  Nb92  1  0.12500000  0.37500000  0.37500000  1.0
  Nb  Nb93  1  0.62500000  0.87500000  0.37500000  1.0
  Nb  Nb94  1  0.62500000  0.37500000  0.87500000  1.0
  Nb  Nb95  1  0.12500000  0.87500000  0.87500000  1.0
  O  O96  1  0.75000000  0.75000000  0.75000000  1.0
  O  O97  1  0.25000000  0.25000000  0.75000000  1.0
  O  O98  1  0.25000000  0.75000000  0.25000000  1.0
  O  O99  1  0.75000000  0.25000000  0.25000000  1.0
  O  O100  1  0.75000000  0.50000000  0.50000000  1.0
  O  O101  1  0.25000000  0.00000000  0.50000000  1.0
  O  O102  1  0.25000000  0.50000000  0.00000000  1.0
  O  O103  1  0.75000000  0.00000000  0.00000000  1.0
  O  O104  1  0.50000000  0.75000000  0.50000000  1.0
  O  O105  1  0.00000000  0.25000000  0.50000000  1.0
  O  O106  1  0.00000000  0.75000000  0.00000000  1.0
  O  O107  1  0.50000000  0.25000000  0.00000000  1.0
  O  O108  1  0.50000000  0.50000000  0.25000000  1.0
  O  O109  1  0.00000000  0.00000000  0.25000000  1.0
  O  O110  1  0.00000000  0.50000000  0.75000000  1.0
  O  O111  1  0.50000000  0.00000000  0.75000000  1.0
  O  O112  1  0.50000000  0.50000000  0.75000000  1.0
  O  O113  1  0.00000000  0.00000000  0.75000000  1.0
  O  O114  1  0.00000000  0.50000000  0.25000000  1.0
  O  O115  1  0.50000000  0.00000000  0.25000000  1.0
  O  O116  1  0.50000000  0.25000000  0.50000000  1.0
  O  O117  1  0.00000000  0.75000000  0.50000000  1.0
  O  O118  1  0.00000000  0.25000000  0.00000000  1.0
  O  O119  1  0.50000000  0.75000000  0.00000000  1.0
  O  O120  1  0.25000000  0.50000000  0.50000000  1.0
  O  O121  1  0.75000000  0.00000000  0.50000000  1.0
  O  O122  1  0.75000000  0.50000000  0.00000000  1.0
  O  O123  1  0.25000000  0.00000000  0.00000000  1.0
  O  O124  1  0.25000000  0.25000000  0.25000000  1.0
  O  O125  1  0.75000000  0.75000000  0.25000000  1.0
  O  O126  1  0.75000000  0.25000000  0.75000000  1.0
  O  O127  1  0.25000000  0.75000000  0.75000000  1.0
