# generated using pymatgen
data_NaCl
_symmetry_space_group_name_H-M   'P 1'
_cell_length_a   28.17244794
_cell_length_b   28.17244794
_cell_length_c   28.17244794
_cell_angle_alpha   60.00000000
_cell_angle_beta   60.00000000
_cell_angle_gamma   60.00000000
_symmetry_Int_Tables_number   1
_chemical_formula_structural   NaCl
_chemical_formula_sum   'Na343 Cl343'
_cell_volume   15810.97883278
_cell_formula_units_Z   343
loop_
 _symmetry_equiv_pos_site_id
 _symmetry_equiv_pos_as_xyz
  1  'x, y, z'
loop_
 _atom_site_type_symbol
 _atom_site_label
 _atom_site_symmetry_multiplicity
 _atom_site_fract_x
 _atom_site_fract_y
 _atom_site_fract_z
 _atom_site_occupancy
  Na  Na0  1  0.00000000  0.00000000  0.00000000  1.0
  Na  Na1  1  0.00000000  0.00000000  0.14285714  1.0
  Na  Na2  1  0.00000000  0.00000000  0.28571429  1.0
  Na  Na3  1  0.00000000  0.00000000  0.42857143  1.0
  Na  Na4  1  0.00000000  0.00000000  0.57142857  1.0
  Na  Na5  1  0.00000000  0.00000000  0.71428571  1.0
  Na  Na6  1  0.00000000  0.00000000  0.85714286  1.0
  Na  Na7  1  0.00000000  0.14285714  0.00000000  1.0
  Na  Na8  1  0.00000000  0.14285714  0.14285714  1.0
  Na  Na9  1  0.00000000  0.14285714  0.28571429  1.0
  Na  Na10  1  0.00000000  0.14285714  0.42857143  1.0
  Na  Na11  1  0.00000000  0.14285714  0.57142857  1.0
  Na  Na12  1  0.00000000  0.14285714  0.71428571  1.0
  Na  Na13  1  0.00000000  0.14285714  0.85714286  1.0
  Na  Na14  1  0.00000000  0.28571429  0.00000000  1.0
  Na  Na15  1  0.00000000  0.28571429  0.14285714  1.0
  Na  Na16  1  0.00000000  0.28571429  0.28571429  1.0
  Na  Na17  1  0.00000000  0.28571429  0.42857143  1.0
  Na  Na18  1  0.00000000  0.28571429  0.57142857  1.0
  Na  Na19  1  0.00000000  0.28571429  0.71428571  1.0
  Na  Na20  1  0.00000000  0.28571429  0.85714286  1.0
  Na  Na21  1  1.00000000  0.42857143  0.00000000  1.0
  Na  Na22  1  1.00000000  0.42857143  0.14285714  1.0
  Na  Na23  1  1.00000000  0.42857143  0.28571429  1.0
  Na  Na24  1  1.00000000  0.42857143  0.42857143  1.0
  Na  Na25  1  1.00000000  0.42857143  0.57142857  1.0
  Na  Na26  1  1.00000000  0.42857143  0.71428571  1.0
  Na  Na27  1  1.00000000  0.42857143  0.85714286  1.0
  Na  Na28  1  0.00000000  0.57142857  0.00000000  1.0
  Na  Na29  1  0.00000000  0.57142857  0.14285714  1.0
  Na  Na30  1  0.00000000  0.57142857  0.28571429  1.0
  Na  Na31  1  0.00000000  0.57142857  0.42857143  1.0
  Na  Na32  1  0.00000000  0.57142857  0.57142857  1.0
  Na  Na33  1  0.00000000  0.57142857  0.71428571  1.0
  Na  Na34  1  0.00000000  0.57142857  0.85714286  1.0
  Na  Na35  1  0.00000000  0.71428571  0.00000000  1.0
  Na  Na36  1  0.00000000  0.71428571  0.14285714  1.0
  Na  Na37  1  0.00000000  0.71428571  0.28571429  1.0
  Na  Na38  1  0.00000000  0.71428571  0.42857143  1.0
  Na  Na39  1  0.00000000  0.71428571  0.57142857  1.0
  Na  Na40  1  0.00000000  0.71428571  0.71428571  1.0
  Na  Na41  1  0.00000000  0.71428571  0.85714286  1.0
  Na  Na42  1  1.00000000  0.85714286  0.00000000  1.0
  Na  Na43  1  1.00000000  0.85714286  0.14285714  1.0
  Na  Na44  1  1.00000000  0.85714286  0.28571429  1.0
  Na  Na45  1  1.00000000  0.85714286  0.42857143  1.0
  Na  Na46  1  1.00000000  0.85714286  0.57142857  1.0
  Na  Na47  1  1.00000000  0.85714286  0.71428571  1.0
  Na  Na48  1  1.00000000  0.85714286  0.85714286  1.0
  Na  Na49  1  0.14285714  0.00000000  0.00000000  1.0
  Na  Na50  1  0.14285714  0.00000000  0.14285714  1.0
  Na  Na51  1  0.14285714  0.00000000  0.28571429  1.0
  Na  Na52  1  0.14285714  0.00000000  0.42857143  1.0
  Na  Na53  1  0.14285714  0.00000000  0.57142857  1.0
  Na  Na54  1  0.14285714  0.00000000  0.71428571  1.0
  Na  Na55  1  0.14285714  0.00000000  0.85714286  1.0
  Na  Na56  1  0.14285714  0.14285714  0.00000000  1.0
  Na  Na57  1  0.14285714  0.14285714  0.14285714  1.0
  Na  Na58  1  0.14285714  0.14285714  0.28571429  1.0
  Na  Na59  1  0.14285714  0.14285714  0.42857143  1.0
  Na  Na60  1  0.14285714  0.14285714  0.57142857  1.0
  Na  Na61  1  0.14285714  0.14285714  0.71428571  1.0
  Na  Na62  1  0.14285714  0.14285714  0.85714286  1.0
  Na  Na63  1  0.14285714  0.28571429  1.00000000  1.0
  Na  Na64  1  0.14285714  0.28571429  0.14285714  1.0
  Na  Na65  1  0.14285714  0.28571429  0.28571429  1.0
  Na  Na66  1  0.14285714  0.28571429  0.42857143  1.0
  Na  Na67  1  0.14285714  0.28571429  0.57142857  1.0
  Na  Na68  1  0.14285714  0.28571429  0.71428571  1.0
  Na  Na69  1  0.14285714  0.28571429  0.85714286  1.0
  Na  Na70  1  0.14285714  0.42857143  0.00000000  1.0
  Na  Na71  1  0.14285714  0.42857143  0.14285714  1.0
  Na  Na72  1  0.14285714  0.42857143  0.28571429  1.0
  Na  Na73  1  0.14285714  0.42857143  0.42857143  1.0
  Na  Na74  1  0.14285714  0.42857143  0.57142857  1.0
  Na  Na75  1  0.14285714  0.42857143  0.71428571  1.0
  Na  Na76  1  0.14285714  0.42857143  0.85714286  1.0
  Na  Na77  1  0.14285714  0.57142857  0.00000000  1.0
  Na  Na78  1  0.14285714  0.57142857  0.14285714  1.0
  Na  Na79  1  0.14285714  0.57142857  0.28571429  1.0
  Na  Na80  1  0.14285714  0.57142857  0.42857143  1.0
  Na  Na81  1  0.14285714  0.57142857  0.57142857  1.0
  Na  Na82  1  0.14285714  0.57142857  0.71428571  1.0
  Na  Na83  1  0.14285714  0.57142857  0.85714286  1.0
  Na  Na84  1  0.14285714  0.71428571  0.00000000  1.0
  Na  Na85  1  0.14285714  0.71428571  0.14285714  1.0
  Na  Na86  1  0.14285714  0.71428571  0.28571429  1.0
  Na  Na87  1  0.14285714  0.71428571  0.42857143  1.0
  Na  Na88  1  0.14285714  0.71428571  0.57142857  1.0
  Na  Na89  1  0.14285714  0.71428571  0.71428571  1.0
  Na  Na90  1  0.14285714  0.71428571  0.85714286  1.0
  Na  Na91  1  0.14285714  0.85714286  1.00000000  1.0
  Na  Na92  1  0.14285714  0.85714286  0.14285714  1.0
  Na  Na93  1  0.14285714  0.85714286  0.28571429  1.0
  Na  Na94  1  0.14285714  0.85714286  0.42857143  1.0
  Na  Na95  1  0.14285714  0.85714286  0.57142857  1.0
  Na  Na96  1  0.14285714  0.85714286  0.71428571  1.0
  Na  Na97  1  0.14285714  0.85714286  0.85714286  1.0
  Na  Na98  1  0.28571429  0.00000000  0.00000000  1.0
  Na  Na99  1  0.28571429  0.00000000  0.14285714  1.0
  Na  Na100  1  0.28571429  0.00000000  0.28571429  1.0
  Na  Na101  1  0.28571429  0.00000000  0.42857143  1.0
  Na  Na102  1  0.28571429  0.00000000  0.57142857  1.0
  Na  Na103  1  0.28571429  0.00000000  0.71428571  1.0
  Na  Na104  1  0.28571429  0.00000000  0.85714286  1.0
  Na  Na105  1  0.28571429  0.14285714  0.00000000  1.0
  Na  Na106  1  0.28571429  0.14285714  0.14285714  1.0
  Na  Na107  1  0.28571429  0.14285714  0.28571429  1.0
  Na  Na108  1  0.28571429  0.14285714  0.42857143  1.0
  Na  Na109  1  0.28571429  0.14285714  0.57142857  1.0
  Na  Na110  1  0.28571429  0.14285714  0.71428571  1.0
  Na  Na111  1  0.28571429  0.14285714  0.85714286  1.0
  Na  Na112  1  0.28571429  0.28571429  0.00000000  1.0
  Na  Na113  1  0.28571429  0.28571429  0.14285714  1.0
  Na  Na114  1  0.28571429  0.28571429  0.28571429  1.0
  Na  Na115  1  0.28571429  0.28571429  0.42857143  1.0
  Na  Na116  1  0.28571429  0.28571429  0.57142857  1.0
  Na  Na117  1  0.28571429  0.28571429  0.71428571  1.0
  Na  Na118  1  0.28571429  0.28571429  0.85714286  1.0
  Na  Na119  1  0.28571429  0.42857143  0.00000000  1.0
  Na  Na120  1  0.28571429  0.42857143  0.14285714  1.0
  Na  Na121  1  0.28571429  0.42857143  0.28571429  1.0
  Na  Na122  1  0.28571429  0.42857143  0.42857143  1.0
  Na  Na123  1  0.28571429  0.42857143  0.57142857  1.0
  Na  Na124  1  0.28571429  0.42857143  0.71428571  1.0
  Na  Na125  1  0.28571429  0.42857143  0.85714286  1.0
  Na  Na126  1  0.28571429  0.57142857  1.00000000  1.0
  Na  Na127  1  0.28571429  0.57142857  0.14285714  1.0
  Na  Na128  1  0.28571429  0.57142857  0.28571429  1.0
  Na  Na129  1  0.28571429  0.57142857  0.42857143  1.0
  Na  Na130  1  0.28571429  0.57142857  0.57142857  1.0
  Na  Na131  1  0.28571429  0.57142857  0.71428571  1.0
  Na  Na132  1  0.28571429  0.57142857  0.85714286  1.0
  Na  Na133  1  0.28571429  0.71428571  1.00000000  1.0
  Na  Na134  1  0.28571429  0.71428571  0.14285714  1.0
  Na  Na135  1  0.28571429  0.71428571  0.28571429  1.0
  Na  Na136  1  0.28571429  0.71428571  0.42857143  1.0
  Na  Na137  1  0.28571429  0.71428571  0.57142857  1.0
  Na  Na138  1  0.28571429  0.71428571  0.71428571  1.0
  Na  Na139  1  0.28571429  0.71428571  0.85714286  1.0
  Na  Na140  1  0.28571429  0.85714286  0.00000000  1.0
  Na  Na141  1  0.28571429  0.85714286  0.14285714  1.0
  Na  Na142  1  0.28571429  0.85714286  0.28571429  1.0
  Na  Na143  1  0.28571429  0.85714286  0.42857143  1.0
  Na  Na144  1  0.28571429  0.85714286  0.57142857  1.0
  Na  Na145  1  0.28571429  0.85714286  0.71428571  1.0
  Na  Na146  1  0.28571429  0.85714286  0.85714286  1.0
  Na  Na147  1  0.42857143  0.00000000  0.00000000  1.0
  Na  Na148  1  0.42857143  0.00000000  0.14285714  1.0
  Na  Na149  1  0.42857143  0.00000000  0.28571429  1.0
  Na  Na150  1  0.42857143  0.00000000  0.42857143  1.0
  Na  Na151  1  0.42857143  0.00000000  0.57142857  1.0
  Na  Na152  1  0.42857143  0.00000000  0.71428571  1.0
  Na  Na153  1  0.42857143  0.00000000  0.85714286  1.0
  Na  Na154  1  0.42857143  0.14285714  0.00000000  1.0
  Na  Na155  1  0.42857143  0.14285714  0.14285714  1.0
  Na  Na156  1  0.42857143  0.14285714  0.28571429  1.0
  Na  Na157  1  0.42857143  0.14285714  0.42857143  1.0
  Na  Na158  1  0.42857143  0.14285714  0.57142857  1.0
  Na  Na159  1  0.42857143  0.14285714  0.71428571  1.0
  Na  Na160  1  0.42857143  0.14285714  0.85714286  1.0
  Na  Na161  1  0.42857143  0.28571429  0.00000000  1.0
  Na  Na162  1  0.42857143  0.28571429  0.14285714  1.0
  Na  Na163  1  0.42857143  0.28571429  0.28571429  1.0
  Na  Na164  1  0.42857143  0.28571429  0.42857143  1.0
  Na  Na165  1  0.42857143  0.28571429  0.57142857  1.0
  Na  Na166  1  0.42857143  0.28571429  0.71428571  1.0
  Na  Na167  1  0.42857143  0.28571429  0.85714286  1.0
  Na  Na168  1  0.42857143  0.42857143  0.00000000  1.0
  Na  Na169  1  0.42857143  0.42857143  0.14285714  1.0
  Na  Na170  1  0.42857143  0.42857143  0.28571429  1.0
  Na  Na171  1  0.42857143  0.42857143  0.42857143  1.0
  Na  Na172  1  0.42857143  0.42857143  0.57142857  1.0
  Na  Na173  1  0.42857143  0.42857143  0.71428571  1.0
  Na  Na174  1  0.42857143  0.42857143  0.85714286  1.0
  Na  Na175  1  0.42857143  0.57142857  1.00000000  1.0
  Na  Na176  1  0.42857143  0.57142857  0.14285714  1.0
  Na  Na177  1  0.42857143  0.57142857  0.28571429  1.0
  Na  Na178  1  0.42857143  0.57142857  0.42857143  1.0
  Na  Na179  1  0.42857143  0.57142857  0.57142857  1.0
  Na  Na180  1  0.42857143  0.57142857  0.71428571  1.0
  Na  Na181  1  0.42857143  0.57142857  0.85714286  1.0
  Na  Na182  1  0.42857143  0.71428571  0.00000000  1.0
  Na  Na183  1  0.42857143  0.71428571  0.14285714  1.0
  Na  Na184  1  0.42857143  0.71428571  0.28571429  1.0
  Na  Na185  1  0.42857143  0.71428571  0.42857143  1.0
  Na  Na186  1  0.42857143  0.71428571  0.57142857  1.0
  Na  Na187  1  0.42857143  0.71428571  0.71428571  1.0
  Na  Na188  1  0.42857143  0.71428571  0.85714286  1.0
  Na  Na189  1  0.42857143  0.85714286  0.00000000  1.0
  Na  Na190  1  0.42857143  0.85714286  0.14285714  1.0
  Na  Na191  1  0.42857143  0.85714286  0.28571429  1.0
  Na  Na192  1  0.42857143  0.85714286  0.42857143  1.0
  Na  Na193  1  0.42857143  0.85714286  0.57142857  1.0
  Na  Na194  1  0.42857143  0.85714286  0.71428571  1.0
  Na  Na195  1  0.42857143  0.85714286  0.85714286  1.0
  Na  Na196  1  0.57142857  0.00000000  0.00000000  1.0
  Na  Na197  1  0.57142857  0.00000000  0.14285714  1.0
  Na  Na198  1  0.57142857  0.00000000  0.28571429  1.0
  Na  Na199  1  0.57142857  0.00000000  0.42857143  1.0
  Na  Na200  1  0.57142857  0.00000000  0.57142857  1.0
  Na  Na201  1  0.57142857  0.00000000  0.71428571  1.0
  Na  Na202  1  0.57142857  0.00000000  0.85714286  1.0
  Na  Na203  1  0.57142857  0.14285714  1.00000000  1.0
  Na  Na204  1  0.57142857  0.14285714  0.14285714  1.0
  Na  Na205  1  0.57142857  0.14285714  0.28571429  1.0
  Na  Na206  1  0.57142857  0.14285714  0.42857143  1.0
  Na  Na207  1  0.57142857  0.14285714  0.57142857  1.0
  Na  Na208  1  0.57142857  0.14285714  0.71428571  1.0
  Na  Na209  1  0.57142857  0.14285714  0.85714286  1.0
  Na  Na210  1  0.57142857  0.28571429  0.00000000  1.0
  Na  Na211  1  0.57142857  0.28571429  0.14285714  1.0
  Na  Na212  1  0.57142857  0.28571429  0.28571429  1.0
  Na  Na213  1  0.57142857  0.28571429  0.42857143  1.0
  Na  Na214  1  0.57142857  0.28571429  0.57142857  1.0
  Na  Na215  1  0.57142857  0.28571429  0.71428571  1.0
  Na  Na216  1  0.57142857  0.28571429  0.85714286  1.0
  Na  Na217  1  0.57142857  0.42857143  0.00000000  1.0
  Na  Na218  1  0.57142857  0.42857143  0.14285714  1.0
  Na  Na219  1  0.57142857  0.42857143  0.28571429  1.0
  Na  Na220  1  0.57142857  0.42857143  0.42857143  1.0
  Na  Na221  1  0.57142857  0.42857143  0.57142857  1.0
  Na  Na222  1  0.57142857  0.42857143  0.71428571  1.0
  Na  Na223  1  0.57142857  0.42857143  0.85714286  1.0
  Na  Na224  1  0.57142857  0.57142857  0.00000000  1.0
  Na  Na225  1  0.57142857  0.57142857  0.14285714  1.0
  Na  Na226  1  0.57142857  0.57142857  0.28571429  1.0
  Na  Na227  1  0.57142857  0.57142857  0.42857143  1.0
  Na  Na228  1  0.57142857  0.57142857  0.57142857  1.0
  Na  Na229  1  0.57142857  0.57142857  0.71428571  1.0
  Na  Na230  1  0.57142857  0.57142857  0.85714286  1.0
  Na  Na231  1  0.57142857  0.71428571  0.00000000  1.0
  Na  Na232  1  0.57142857  0.71428571  0.14285714  1.0
  Na  Na233  1  0.57142857  0.71428571  0.28571429  1.0
  Na  Na234  1  0.57142857  0.71428571  0.42857143  1.0
  Na  Na235  1  0.57142857  0.71428571  0.57142857  1.0
  Na  Na236  1  0.57142857  0.71428571  0.71428571  1.0
  Na  Na237  1  0.57142857  0.71428571  0.85714286  1.0
  Na  Na238  1  0.57142857  0.85714286  0.00000000  1.0
  Na  Na239  1  0.57142857  0.85714286  0.14285714  1.0
  Na  Na240  1  0.57142857  0.85714286  0.28571429  1.0
  Na  Na241  1  0.57142857  0.85714286  0.42857143  1.0
  Na  Na242  1  0.57142857  0.85714286  0.57142857  1.0
  Na  Na243  1  0.57142857  0.85714286  0.71428571  1.0
  Na  Na244  1  0.57142857  0.85714286  0.85714286  1.0
  Na  Na245  1  0.71428571  0.00000000  0.00000000  1.0
  Na  Na246  1  0.71428571  0.00000000  0.14285714  1.0
  Na  Na247  1  0.71428571  0.00000000  0.28571429  1.0
  Na  Na248  1  0.71428571  0.00000000  0.42857143  1.0
  Na  Na249  1  0.71428571  0.00000000  0.57142857  1.0
  Na  Na250  1  0.71428571  0.00000000  0.71428571  1.0
  Na  Na251  1  0.71428571  0.00000000  0.85714286  1.0
  Na  Na252  1  0.71428571  0.14285714  0.00000000  1.0
  Na  Na253  1  0.71428571  0.14285714  0.14285714  1.0
  Na  Na254  1  0.71428571  0.14285714  0.28571429  1.0
  Na  Na255  1  0.71428571  0.14285714  0.42857143  1.0
  Na  Na256  1  0.71428571  0.14285714  0.57142857  1.0
  Na  Na257  1  0.71428571  0.14285714  0.71428571  1.0
  Na  Na258  1  0.71428571  0.14285714  0.85714286  1.0
  Na  Na259  1  0.71428571  0.28571429  1.00000000  1.0
  Na  Na260  1  0.71428571  0.28571429  0.14285714  1.0
  Na  Na261  1  0.71428571  0.28571429  0.28571429  1.0
  Na  Na262  1  0.71428571  0.28571429  0.42857143  1.0
  Na  Na263  1  0.71428571  0.28571429  0.57142857  1.0
  Na  Na264  1  0.71428571  0.28571429  0.71428571  1.0
  Na  Na265  1  0.71428571  0.28571429  0.85714286  1.0
  Na  Na266  1  0.71428571  0.42857143  0.00000000  1.0
  Na  Na267  1  0.71428571  0.42857143  0.14285714  1.0
  Na  Na268  1  0.71428571  0.42857143  0.28571429  1.0
  Na  Na269  1  0.71428571  0.42857143  0.42857143  1.0
  Na  Na270  1  0.71428571  0.42857143  0.57142857  1.0
  Na  Na271  1  0.71428571  0.42857143  0.71428571  1.0
  Na  Na272  1  0.71428571  0.42857143  0.85714286  1.0
  Na  Na273  1  0.71428571  0.57142857  0.00000000  1.0
  Na  Na274  1  0.71428571  0.57142857  0.14285714  1.0
  Na  Na275  1  0.71428571  0.57142857  0.28571429  1.0
  Na  Na276  1  0.71428571  0.57142857  0.42857143  1.0
  Na  Na277  1  0.71428571  0.57142857  0.57142857  1.0
  Na  Na278  1  0.71428571  0.57142857  0.71428571  1.0
  Na  Na279  1  0.71428571  0.57142857  0.85714286  1.0
  Na  Na280  1  0.71428571  0.71428571  0.00000000  1.0
  Na  Na281  1  0.71428571  0.71428571  0.14285714  1.0
  Na  Na282  1  0.71428571  0.71428571  0.28571429  1.0
  Na  Na283  1  0.71428571  0.71428571  0.42857143  1.0
  Na  Na284  1  0.71428571  0.71428571  0.57142857  1.0
  Na  Na285  1  0.71428571  0.71428571  0.71428571  1.0
  Na  Na286  1  0.71428571  0.71428571  0.85714286  1.0
  Na  Na287  1  0.71428571  0.85714286  1.00000000  1.0
  Na  Na288  1  0.71428571  0.85714286  0.14285714  1.0
  Na  Na289  1  0.71428571  0.85714286  0.28571429  1.0
  Na  Na290  1  0.71428571  0.85714286  0.42857143  1.0
  Na  Na291  1  0.71428571  0.85714286  0.57142857  1.0
  Na  Na292  1  0.71428571  0.85714286  0.71428571  1.0
  Na  Na293  1  0.71428571  0.85714286  0.85714286  1.0
  Na  Na294  1  0.85714286  0.00000000  0.00000000  1.0
  Na  Na295  1  0.85714286  0.00000000  0.14285714  1.0
  Na  Na296  1  0.85714286  0.00000000  0.28571429  1.0
  Na  Na297  1  0.85714286  0.00000000  0.42857143  1.0
  Na  Na298  1  0.85714286  0.00000000  0.57142857  1.0
  Na  Na299  1  0.85714286  0.00000000  0.71428571  1.0
  Na  Na300  1  0.85714286  0.00000000  0.85714286  1.0
  Na  Na301  1  0.85714286  0.14285714  0.00000000  1.0
  Na  Na302  1  0.85714286  0.14285714  0.14285714  1.0
  Na  Na303  1  0.85714286  0.14285714  0.28571429  1.0
  Na  Na304  1  0.85714286  0.14285714  0.42857143  1.0
  Na  Na305  1  0.85714286  0.14285714  0.57142857  1.0
  Na  Na306  1  0.85714286  0.14285714  0.71428571  1.0
  Na  Na307  1  0.85714286  0.14285714  0.85714286  1.0
  Na  Na308  1  0.85714286  0.28571429  0.00000000  1.0
  Na  Na309  1  0.85714286  0.28571429  0.14285714  1.0
  Na  Na310  1  0.85714286  0.28571429  0.28571429  1.0
  Na  Na311  1  0.85714286  0.28571429  0.42857143  1.0
  Na  Na312  1  0.85714286  0.28571429  0.57142857  1.0
  Na  Na313  1  0.85714286  0.28571429  0.71428571  1.0
  Na  Na314  1  0.85714286  0.28571429  0.85714286  1.0
  Na  Na315  1  0.85714286  0.42857143  0.00000000  1.0
  Na  Na316  1  0.85714286  0.42857143  0.14285714  1.0
  Na  Na317  1  0.85714286  0.42857143  0.28571429  1.0
  Na  Na318  1  0.85714286  0.42857143  0.42857143  1.0
  Na  Na319  1  0.85714286  0.42857143  0.57142857  1.0
  Na  Na320  1  0.85714286  0.42857143  0.71428571  1.0
  Na  Na321  1  0.85714286  0.42857143  0.85714286  1.0
  Na  Na322  1  0.85714286  0.57142857  0.00000000  1.0
  Na  Na323  1  0.85714286  0.57142857  0.14285714  1.0
  Na  Na324  1  0.85714286  0.57142857  0.28571429  1.0
  Na  Na325  1  0.85714286  0.57142857  0.42857143  1.0
  Na  Na326  1  0.85714286  0.57142857  0.57142857  1.0
  Na  Na327  1  0.85714286  0.57142857  0.71428571  1.0
  Na  Na328  1  0.85714286  0.57142857  0.85714286  1.0
  Na  Na329  1  0.85714286  0.71428571  0.00000000  1.0
  Na  Na330  1  0.85714286  0.71428571  0.14285714  1.0
  Na  Na331  1  0.85714286  0.71428571  0.28571429  1.0
  Na  Na332  1  0.85714286  0.71428571  0.42857143  1.0
  Na  Na333  1  0.85714286  0.71428571  0.57142857  1.0
  Na  Na334  1  0.85714286  0.71428571  0.71428571  1.0
  Na  Na335  1  0.85714286  0.71428571  0.85714286  1.0
  Na  Na336  1  0.85714286  0.85714286  0.00000000  1.0
  Na  Na337  1  0.85714286  0.85714286  0.14285714  1.0
  Na  Na338  1  0.85714286  0.85714286  0.28571429  1.0
  Na  Na339  1  0.85714286  0.85714286  0.42857143  1.0
  Na  Na340  1  0.85714286  0.85714286  0.57142857  1.0
  Na  Na341  1  0.85714286  0.85714286  0.71428571  1.0
  Na  Na342  1  0.85714286  0.85714286  0.85714286  1.0
  Cl  Cl343  1  0.07142857  0.07142857  0.07142857  1.0
  Cl  Cl344  1  0.07142857  0.07142857  0.21428571  1.0
  Cl  Cl345  1  0.07142857  0.07142857  0.35714286  1.0
  Cl  Cl346  1  0.07142857  0.07142857  0.50000000  1.0
  Cl  Cl347  1  0.07142857  0.07142857  0.64285714  1.0
  Cl  Cl348  1  0.07142857  0.07142857  0.78571429  1.0
  Cl  Cl349  1  0.07142857  0.07142857  0.92857143  1.0
  Cl  Cl350  1  0.07142857  0.21428571  0.07142857  1.0
  Cl  Cl351  1  0.07142857  0.21428571  0.21428571  1.0
  Cl  Cl352  1  0.07142857  0.21428571  0.35714286  1.0
  Cl  Cl353  1  0.07142857  0.21428571  0.50000000  1.0
  Cl  Cl354  1  0.07142857  0.21428571  0.64285714  1.0
  Cl  Cl355  1  0.07142857  0.21428571  0.78571429  1.0
  Cl  Cl356  1  0.07142857  0.21428571  0.92857143  1.0
  Cl  Cl357  1  0.07142857  0.35714286  0.07142857  1.0
  Cl  Cl358  1  0.07142857  0.35714286  0.21428571  1.0
  Cl  Cl359  1  0.07142857  0.35714286  0.35714286  1.0
  Cl  Cl360  1  0.07142857  0.35714286  0.50000000  1.0
  Cl  Cl361  1  0.07142857  0.35714286  0.64285714  1.0
  Cl  Cl362  1  0.07142857  0.35714286  0.78571429  1.0
  Cl  Cl363  1  0.07142857  0.35714286  0.92857143  1.0
  Cl  Cl364  1  0.07142857  0.50000000  0.07142857  1.0
  Cl  Cl365  1  0.07142857  0.50000000  0.21428571  1.0
  Cl  Cl366  1  0.07142857  0.50000000  0.35714286  1.0
  Cl  Cl367  1  0.07142857  0.50000000  0.50000000  1.0
  Cl  Cl368  1  0.07142857  0.50000000  0.64285714  1.0
  Cl  Cl369  1  0.07142857  0.50000000  0.78571429  1.0
  Cl  Cl370  1  0.07142857  0.50000000  0.92857143  1.0
  Cl  Cl371  1  0.07142857  0.64285714  0.07142857  1.0
  Cl  Cl372  1  0.07142857  0.64285714  0.21428571  1.0
  Cl  Cl373  1  0.07142857  0.64285714  0.35714286  1.0
  Cl  Cl374  1  0.07142857  0.64285714  0.50000000  1.0
  Cl  Cl375  1  0.07142857  0.64285714  0.64285714  1.0
  Cl  Cl376  1  0.07142857  0.64285714  0.78571429  1.0
  Cl  Cl377  1  0.07142857  0.64285714  0.92857143  1.0
  Cl  Cl378  1  0.07142857  0.78571429  0.07142857  1.0
  Cl  Cl379  1  0.07142857  0.78571429  0.21428571  1.0
  Cl  Cl380  1  0.07142857  0.78571429  0.35714286  1.0
  Cl  Cl381  1  0.07142857  0.78571429  0.50000000  1.0
  Cl  Cl382  1  0.07142857  0.78571429  0.64285714  1.0
  Cl  Cl383  1  0.07142857  0.78571429  0.78571429  1.0
  Cl  Cl384  1  0.07142857  0.78571429  0.92857143  1.0
  Cl  Cl385  1  0.07142857  0.92857143  0.07142857  1.0
  Cl  Cl386  1  0.07142857  0.92857143  0.21428571  1.0
  Cl  Cl387  1  0.07142857  0.92857143  0.35714286  1.0
  Cl  Cl388  1  0.07142857  0.92857143  0.50000000  1.0
  Cl  Cl389  1  0.07142857  0.92857143  0.64285714  1.0
  Cl  Cl390  1  0.07142857  0.92857143  0.78571429  1.0
  Cl  Cl391  1  0.07142857  0.92857143  0.92857143  1.0
  Cl  Cl392  1  0.21428571  0.07142857  0.07142857  1.0
  Cl  Cl393  1  0.21428571  0.07142857  0.21428571  1.0
  Cl  Cl394  1  0.21428571  0.07142857  0.35714286  1.0
  Cl  Cl395  1  0.21428571  0.07142857  0.50000000  1.0
  Cl  Cl396  1  0.21428571  0.07142857  0.64285714  1.0
  Cl  Cl397  1  0.21428571  0.07142857  0.78571429  1.0
  Cl  Cl398  1  0.21428571  0.07142857  0.92857143  1.0
  Cl  Cl399  1  0.21428571  0.21428571  0.07142857  1.0
  Cl  Cl400  1  0.21428571  0.21428571  0.21428571  1.0
  Cl  Cl401  1  0.21428571  0.21428571  0.35714286  1.0
  Cl  Cl402  1  0.21428571  0.21428571  0.50000000  1.0
  Cl  Cl403  1  0.21428571  0.21428571  0.64285714  1.0
  Cl  Cl404  1  0.21428571  0.21428571  0.78571429  1.0
  Cl  Cl405  1  0.21428571  0.21428571  0.92857143  1.0
  Cl  Cl406  1  0.21428571  0.35714286  0.07142857  1.0
  Cl  Cl407  1  0.21428571  0.35714286  0.21428571  1.0
  Cl  Cl408  1  0.21428571  0.35714286  0.35714286  1.0
  Cl  Cl409  1  0.21428571  0.35714286  0.50000000  1.0
  Cl  Cl410  1  0.21428571  0.35714286  0.64285714  1.0
  Cl  Cl411  1  0.21428571  0.35714286  0.78571429  1.0
  Cl  Cl412  1  0.21428571  0.35714286  0.92857143  1.0
  Cl  Cl413  1  0.21428571  0.50000000  0.07142857  1.0
  Cl  Cl414  1  0.21428571  0.50000000  0.21428571  1.0
  Cl  Cl415  1  0.21428571  0.50000000  0.35714286  1.0
  Cl  Cl416  1  0.21428571  0.50000000  0.50000000  1.0
  Cl  Cl417  1  0.21428571  0.50000000  0.64285714  1.0
  Cl  Cl418  1  0.21428571  0.50000000  0.78571429  1.0
  Cl  Cl419  1  0.21428571  0.50000000  0.92857143  1.0
  Cl  Cl420  1  0.21428571  0.64285714  0.07142857  1.0
  Cl  Cl421  1  0.21428571  0.64285714  0.21428571  1.0
  Cl  Cl422  1  0.21428571  0.64285714  0.35714286  1.0
  Cl  Cl423  1  0.21428571  0.64285714  0.50000000  1.0
  Cl  Cl424  1  0.21428571  0.64285714  0.64285714  1.0
  Cl  Cl425  1  0.21428571  0.64285714  0.78571429  1.0
  Cl  Cl426  1  0.21428571  0.64285714  0.92857143  1.0
  Cl  Cl427  1  0.21428571  0.78571429  0.07142857  1.0
  Cl  Cl428  1  0.21428571  0.78571429  0.21428571  1.0
  Cl  Cl429  1  0.21428571  0.78571429  0.35714286  1.0
  Cl  Cl430  1  0.21428571  0.78571429  0.50000000  1.0
  Cl  Cl431  1  0.21428571  0.78571429  0.64285714  1.0
  Cl  Cl432  1  0.21428571  0.78571429  0.78571429  1.0
  Cl  Cl433  1  0.21428571  0.78571429  0.92857143  1.0
  Cl  Cl434  1  0.21428571  0.92857143  0.07142857  1.0
  Cl  Cl435  1  0.21428571  0.92857143  0.21428571  1.0
  Cl  Cl436  1  0.21428571  0.92857143  0.35714286  1.0
  Cl  Cl437  1  0.21428571  0.92857143  0.50000000  1.0
  Cl  Cl438  1  0.21428571  0.92857143  0.64285714  1.0
  Cl  Cl439  1  0.21428571  0.92857143  0.78571429  1.0
  Cl  Cl440  1  0.21428571  0.92857143  0.92857143  1.0
  Cl  Cl441  1  0.35714286  0.07142857  0.07142857  1.0
  Cl  Cl442  1  0.35714286  0.07142857  0.21428571  1.0
  Cl  Cl443  1  0.35714286  0.07142857  0.35714286  1.0
  Cl  Cl444  1  0.35714286  0.07142857  0.50000000  1.0
  Cl  Cl445  1  0.35714286  0.07142857  0.64285714  1.0
  Cl  Cl446  1  0.35714286  0.07142857  0.78571429  1.0
  Cl  Cl447  1  0.35714286  0.07142857  0.92857143  1.0
  Cl  Cl448  1  0.35714286  0.21428571  0.07142857  1.0
  Cl  Cl449  1  0.35714286  0.21428571  0.21428571  1.0
  Cl  Cl450  1  0.35714286  0.21428571  0.35714286  1.0
  Cl  Cl451  1  0.35714286  0.21428571  0.50000000  1.0
  Cl  Cl452  1  0.35714286  0.21428571  0.64285714  1.0
  Cl  Cl453  1  0.35714286  0.21428571  0.78571429  1.0
  Cl  Cl454  1  0.35714286  0.21428571  0.92857143  1.0
  Cl  Cl455  1  0.35714286  0.35714286  0.07142857  1.0
  Cl  Cl456  1  0.35714286  0.35714286  0.21428571  1.0
  Cl  Cl457  1  0.35714286  0.35714286  0.35714286  1.0
  Cl  Cl458  1  0.35714286  0.35714286  0.50000000  1.0
  Cl  Cl459  1  0.35714286  0.35714286  0.64285714  1.0
  Cl  Cl460  1  0.35714286  0.35714286  0.78571429  1.0
  Cl  Cl461  1  0.35714286  0.35714286  0.92857143  1.0
  Cl  Cl462  1  0.35714286  0.50000000  0.07142857  1.0
  Cl  Cl463  1  0.35714286  0.50000000  0.21428571  1.0
  Cl  Cl464  1  0.35714286  0.50000000  0.35714286  1.0
  Cl  Cl465  1  0.35714286  0.50000000  0.50000000  1.0
  Cl  Cl466  1  0.35714286  0.50000000  0.64285714  1.0
  Cl  Cl467  1  0.35714286  0.50000000  0.78571429  1.0
  Cl  Cl468  1  0.35714286  0.50000000  0.92857143  1.0
  Cl  Cl469  1  0.35714286  0.64285714  0.07142857  1.0
  Cl  Cl470  1  0.35714286  0.64285714  0.21428571  1.0
  Cl  Cl471  1  0.35714286  0.64285714  0.35714286  1.0
  Cl  Cl472  1  0.35714286  0.64285714  0.50000000  1.0
  Cl  Cl473  1  0.35714286  0.64285714  0.64285714  1.0
  Cl  Cl474  1  0.35714286  0.64285714  0.78571429  1.0
  Cl  Cl475  1  0.35714286  0.64285714  0.92857143  1.0
  Cl  Cl476  1  0.35714286  0.78571429  0.07142857  1.0
  Cl  Cl477  1  0.35714286  0.78571429  0.21428571  1.0
  Cl  Cl478  1  0.35714286  0.78571429  0.35714286  1.0
  Cl  Cl479  1  0.35714286  0.78571429  0.50000000  1.0
  Cl  Cl480  1  0.35714286  0.78571429  0.64285714  1.0
  Cl  Cl481  1  0.35714286  0.78571429  0.78571429  1.0
  Cl  Cl482  1  0.35714286  0.78571429  0.92857143  1.0
  Cl  Cl483  1  0.35714286  0.92857143  0.07142857  1.0
  Cl  Cl484  1  0.35714286  0.92857143  0.21428571  1.0
  Cl  Cl485  1  0.35714286  0.92857143  0.35714286  1.0
  Cl  Cl486  1  0.35714286  0.92857143  0.50000000  1.0
  Cl  Cl487  1  0.35714286  0.92857143  0.64285714  1.0
  Cl  Cl488  1  0.35714286  0.92857143  0.78571429  1.0
  Cl  Cl489  1  0.35714286  0.92857143  0.92857143  1.0
  Cl  Cl490  1  0.50000000  0.07142857  0.07142857  1.0
  Cl  Cl491  1  0.50000000  0.07142857  0.21428571  1.0
  Cl  Cl492  1  0.50000000  0.07142857  0.35714286  1.0
  Cl  Cl493  1  0.50000000  0.07142857  0.50000000  1.0
  Cl  Cl494  1  0.50000000  0.07142857  0.64285714  1.0
  Cl  Cl495  1  0.50000000  0.07142857  0.78571429  1.0
  Cl  Cl496  1  0.50000000  0.07142857  0.92857143  1.0
  Cl  Cl497  1  0.50000000  0.21428571  0.07142857  1.0
  Cl  Cl498  1  0.50000000  0.21428571  0.21428571  1.0
  Cl  Cl499  1  0.50000000  0.21428571  0.35714286  1.0
  Cl  Cl500  1  0.50000000  0.21428571  0.50000000  1.0
  Cl  Cl501  1  0.50000000  0.21428571  0.64285714  1.0
  Cl  Cl502  1  0.50000000  0.21428571  0.78571429  1.0
  Cl  Cl503  1  0.50000000  0.21428571  0.92857143  1.0
  Cl  Cl504  1  0.50000000  0.35714286  0.07142857  1.0
  Cl  Cl505  1  0.50000000  0.35714286  0.21428571  1.0
  Cl  Cl506  1  0.50000000  0.35714286  0.35714286  1.0
  Cl  Cl507  1  0.50000000  0.35714286  0.50000000  1.0
  Cl  Cl508  1  0.50000000  0.35714286  0.64285714  1.0
  Cl  Cl509  1  0.50000000  0.35714286  0.78571429  1.0
  Cl  Cl510  1  0.50000000  0.35714286  0.92857143  1.0
  Cl  Cl511  1  0.50000000  0.50000000  0.07142857  1.0
  Cl  Cl512  1  0.50000000  0.50000000  0.21428571  1.0
  Cl  Cl513  1  0.50000000  0.50000000  0.35714286  1.0
  Cl  Cl514  1  0.50000000  0.50000000  0.50000000  1.0
  Cl  Cl515  1  0.50000000  0.50000000  0.64285714  1.0
  Cl  Cl516  1  0.50000000  0.50000000  0.78571429  1.0
  Cl  Cl517  1  0.50000000  0.50000000  0.92857143  1.0
  Cl  Cl518  1  0.50000000  0.64285714  0.07142857  1.0
  Cl  Cl519  1  0.50000000  0.64285714  0.21428571  1.0
  Cl  Cl520  1  0.50000000  0.64285714  0.35714286  1.0
  Cl  Cl521  1  0.50000000  0.64285714  0.50000000  1.0
  Cl  Cl522  1  0.50000000  0.64285714  0.64285714  1.0
  Cl  Cl523  1  0.50000000  0.64285714  0.78571429  1.0
  Cl  Cl524  1  0.50000000  0.64285714  0.92857143  1.0
  Cl  Cl525  1  0.50000000  0.78571429  0.07142857  1.0
  Cl  Cl526  1  0.50000000  0.78571429  0.21428571  1.0
  Cl  Cl527  1  0.50000000  0.78571429  0.35714286  1.0
  Cl  Cl528  1  0.50000000  0.78571429  0.50000000  1.0
  Cl  Cl529  1  0.50000000  0.78571429  0.64285714  1.0
  Cl  Cl530  1  0.50000000  0.78571429  0.78571429  1.0
  Cl  Cl531  1  0.50000000  0.78571429  0.92857143  1.0
  Cl  Cl532  1  0.50000000  0.92857143  0.07142857  1.0
  Cl  Cl533  1  0.50000000  0.92857143  0.21428571  1.0
  Cl  Cl534  1  0.50000000  0.92857143  0.35714286  1.0
  Cl  Cl535  1  0.50000000  0.92857143  0.50000000  1.0
  Cl  Cl536  1  0.50000000  0.92857143  0.64285714  1.0
  Cl  Cl537  1  0.50000000  0.92857143  0.78571429  1.0
  Cl  Cl538  1  0.50000000  0.92857143  0.92857143  1.0
  Cl  Cl539  1  0.64285714  0.07142857  0.07142857  1.0
  Cl  Cl540  1  0.64285714  0.07142857  0.21428571  1.0
  Cl  Cl541  1  0.64285714  0.07142857  0.35714286  1.0
  Cl  Cl542  1  0.64285714  0.07142857  0.50000000  1.0
  Cl  Cl543  1  0.64285714  0.07142857  0.64285714  1.0
  Cl  Cl544  1  0.64285714  0.07142857  0.78571429  1.0
  Cl  Cl545  1  0.64285714  0.07142857  0.92857143  1.0
  Cl  Cl546  1  0.64285714  0.21428571  0.07142857  1.0
  Cl  Cl547  1  0.64285714  0.21428571  0.21428571  1.0
  Cl  Cl548  1  0.64285714  0.21428571  0.35714286  1.0
  Cl  Cl549  1  0.64285714  0.21428571  0.50000000  1.0
  Cl  Cl550  1  0.64285714  0.21428571  0.64285714  1.0
  Cl  Cl551  1  0.64285714  0.21428571  0.78571429  1.0
  Cl  Cl552  1  0.64285714  0.21428571  0.92857143  1.0
  Cl  Cl553  1  0.64285714  0.35714286  0.07142857  1.0
  Cl  Cl554  1  0.64285714  0.35714286  0.21428571  1.0
  Cl  Cl555  1  0.64285714  0.35714286  0.35714286  1.0
  Cl  Cl556  1  0.64285714  0.35714286  0.50000000  1.0
  Cl  Cl557  1  0.64285714  0.35714286  0.64285714  1.0
  Cl  Cl558  1  0.64285714  0.35714286  0.78571429  1.0
  Cl  Cl559  1  0.64285714  0.35714286  0.92857143  1.0
  Cl  Cl560  1  0.64285714  0.50000000  0.07142857  1.0
  Cl  Cl561  1  0.64285714  0.50000000  0.21428571  1.0
  Cl  Cl562  1  0.64285714  0.50000000  0.35714286  1.0
  Cl  Cl563  1  0.64285714  0.50000000  0.50000000  1.0
  Cl  Cl564  1  0.64285714  0.50000000  0.64285714  1.0
  Cl  Cl565  1  0.64285714  0.50000000  0.78571429  1.0
  Cl  Cl566  1  0.64285714  0.50000000  0.92857143  1.0
  Cl  Cl567  1  0.64285714  0.64285714  0.07142857  1.0
  Cl  Cl568  1  0.64285714  0.64285714  0.21428571  1.0
  Cl  Cl569  1  0.64285714  0.64285714  0.35714286  1.0
  Cl  Cl570  1  0.64285714  0.64285714  0.50000000  1.0
  Cl  Cl571  1  0.64285714  0.64285714  0.64285714  1.0
  Cl  Cl572  1  0.64285714  0.64285714  0.78571429  1.0
  Cl  Cl573  1  0.64285714  0.64285714  0.92857143  1.0
  Cl  Cl574  1  0.64285714  0.78571429  0.07142857  1.0
  Cl  Cl575  1  0.64285714  0.78571429  0.21428571  1.0
  Cl  Cl576  1  0.64285714  0.78571429  0.35714286  1.0
  Cl  Cl577  1  0.64285714  0.78571429  0.50000000  1.0
  Cl  Cl578  1  0.64285714  0.78571429  0.64285714  1.0
  Cl  Cl579  1  0.64285714  0.78571429  0.78571429  1.0
  Cl  Cl580  1  0.64285714  0.78571429  0.92857143  1.0
  Cl  Cl581  1  0.64285714  0.92857143  0.07142857  1.0
  Cl  Cl582  1  0.64285714  0.92857143  0.21428571  1.0
  Cl  Cl583  1  0.64285714  0.92857143  0.35714286  1.0
  Cl  Cl584  1  0.64285714  0.92857143  0.50000000  1.0
  Cl  Cl585  1  0.64285714  0.92857143  0.64285714  1.0
  Cl  Cl586  1  0.64285714  0.92857143  0.78571429  1.0
  Cl  Cl587  1  0.64285714  0.92857143  0.92857143  1.0
  Cl  Cl588  1  0.78571429  0.07142857  0.07142857  1.0
  Cl  Cl589  1  0.78571429  0.07142857  0.21428571  1.0
  Cl  Cl590  1  0.78571429  0.07142857  0.35714286  1.0
  Cl  Cl591  1  0.78571429  0.07142857  0.50000000  1.0
  Cl  Cl592  1  0.78571429  0.07142857  0.64285714  1.0
  Cl  Cl593  1  0.78571429  0.07142857  0.78571429  1.0
  Cl  Cl594  1  0.78571429  0.07142857  0.92857143  1.0
  Cl  Cl595  1  0.78571429  0.21428571  0.07142857  1.0
  Cl  Cl596  1  0.78571429  0.21428571  0.21428571  1.0
  Cl  Cl597  1  0.78571429  0.21428571  0.35714286  1.0
  Cl  Cl598  1  0.78571429  0.21428571  0.50000000  1.0
  Cl  Cl599  1  0.78571429  0.21428571  0.64285714  1.0
  Cl  Cl600  1  0.78571429  0.21428571  0.78571429  1.0
  Cl  Cl601  1  0.78571429  0.21428571  0.92857143  1.0
  Cl  Cl602  1  0.78571429  0.35714286  0.07142857  1.0
  Cl  Cl603  1  0.78571429  0.35714286  0.21428571  1.0
  Cl  Cl604  1  0.78571429  0.35714286  0.35714286  1.0
  Cl  Cl605  1  0.78571429  0.35714286  0.50000000  1.0
  Cl  Cl606  1  0.78571429  0.35714286  0.64285714  1.0
  Cl  Cl607  1  0.78571429  0.35714286  0.78571429  1.0
  Cl  Cl608  1  0.78571429  0.35714286  0.92857143  1.0
  Cl  Cl609  1  0.78571429  0.50000000  0.07142857  1.0
  Cl  Cl610  1  0.78571429  0.50000000  0.21428571  1.0
  Cl  Cl611  1  0.78571429  0.50000000  0.35714286  1.0
  Cl  Cl612  1  0.78571429  0.50000000  0.50000000  1.0
  Cl  Cl613  1  0.78571429  0.50000000  0.64285714  1.0
  Cl  Cl614  1  0.78571429  0.50000000  0.78571429  1.0
  Cl  Cl615  1  0.78571429  0.50000000  0.92857143  1.0
  Cl  Cl616  1  0.78571429  0.64285714  0.07142857  1.0
  Cl  Cl617  1  0.78571429  0.64285714  0.21428571  1.0
  Cl  Cl618  1  0.78571429  0.64285714  0.35714286  1.0
  Cl  Cl619  1  0.78571429  0.64285714  0.50000000  1.0
  Cl  Cl620  1  0.78571429  0.64285714  0.64285714  1.0
  Cl  Cl621  1  0.78571429  0.64285714  0.78571429  1.0
  Cl  Cl622  1  0.78571429  0.64285714  0.92857143  1.0
  Cl  Cl623  1  0.78571429  0.78571429  0.07142857  1.0
  Cl  Cl624  1  0.78571429  0.78571429  0.21428571  1.0
  Cl  Cl625  1  0.78571429  0.78571429  0.35714286  1.0
  Cl  Cl626  1  0.78571429  0.78571429  0.50000000  1.0
  Cl  Cl627  1  0.78571429  0.78571429  0.64285714  1.0
  Cl  Cl628  1  0.78571429  0.78571429  0.78571429  1.0
  Cl  Cl629  1  0.78571429  0.78571429  0.92857143  1.0
  Cl  Cl630  1  0.78571429  0.92857143  0.07142857  1.0
  Cl  Cl631  1  0.78571429  0.92857143  0.21428571  1.0
  Cl  Cl632  1  0.78571429  0.92857143  0.35714286  1.0
  Cl  Cl633  1  0.78571429  0.92857143  0.50000000  1.0
  Cl  Cl634  1  0.78571429  0.92857143  0.64285714  1.0
  Cl  Cl635  1  0.78571429  0.92857143  0.78571429  1.0
  Cl  Cl636  1  0.78571429  0.92857143  0.92857143  1.0
  Cl  Cl637  1  0.92857143  0.07142857  0.07142857  1.0
  Cl  Cl638  1  0.92857143  0.07142857  0.21428571  1.0
  Cl  Cl639  1  0.92857143  0.07142857  0.35714286  1.0
  Cl  Cl640  1  0.92857143  0.07142857  0.50000000  1.0
  Cl  Cl641  1  0.92857143  0.07142857  0.64285714  1.0
  Cl  Cl642  1  0.92857143  0.07142857  0.78571429  1.0
  Cl  Cl643  1  0.92857143  0.07142857  0.92857143  1.0
  Cl  Cl644  1  0.92857143  0.21428571  0.07142857  1.0
  Cl  Cl645  1  0.92857143  0.21428571  0.21428571  1.0
  Cl  Cl646  1  0.92857143  0.21428571  0.35714286  1.0
  Cl  Cl647  1  0.92857143  0.21428571  0.50000000  1.0
  Cl  Cl648  1  0.92857143  0.21428571  0.64285714  1.0
  Cl  Cl649  1  0.92857143  0.21428571  0.78571429  1.0
  Cl  Cl650  1  0.92857143  0.21428571  0.92857143  1.0
  Cl  Cl651  1  0.92857143  0.35714286  0.07142857  1.0
  Cl  Cl652  1  0.92857143  0.35714286  0.21428571  1.0
  Cl  Cl653  1  0.92857143  0.35714286  0.35714286  1.0
  Cl  Cl654  1  0.92857143  0.35714286  0.50000000  1.0
  Cl  Cl655  1  0.92857143  0.35714286  0.64285714  1.0
  Cl  Cl656  1  0.92857143  0.35714286  0.78571429  1.0
  Cl  Cl657  1  0.92857143  0.35714286  0.92857143  1.0
  Cl  Cl658  1  0.92857143  0.50000000  0.07142857  1.0
  Cl  Cl659  1  0.92857143  0.50000000  0.21428571  1.0
  Cl  Cl660  1  0.92857143  0.50000000  0.35714286  1.0
  Cl  Cl661  1  0.92857143  0.50000000  0.50000000  1.0
  Cl  Cl662  1  0.92857143  0.50000000  0.64285714  1.0
  Cl  Cl663  1  0.92857143  0.50000000  0.78571429  1.0
  Cl  Cl664  1  0.92857143  0.50000000  0.92857143  1.0
  Cl  Cl665  1  0.92857143  0.64285714  0.07142857  1.0
  Cl  Cl666  1  0.92857143  0.64285714  0.21428571  1.0
  Cl  Cl667  1  0.92857143  0.64285714  0.35714286  1.0
  Cl  Cl668  1  0.92857143  0.64285714  0.50000000  1.0
  Cl  Cl669  1  0.92857143  0.64285714  0.64285714  1.0
  Cl  Cl670  1  0.92857143  0.64285714  0.78571429  1.0
  Cl  Cl671  1  0.92857143  0.64285714  0.92857143  1.0
  Cl  Cl672  1  0.92857143  0.78571429  0.07142857  1.0
  Cl  Cl673  1  0.92857143  0.78571429  0.21428571  1.0
  Cl  Cl674  1  0.92857143  0.78571429  0.35714286  1.0
  Cl  Cl675  1  0.92857143  0.78571429  0.50000000  1.0
  Cl  Cl676  1  0.92857143  0.78571429  0.64285714  1.0
  Cl  Cl677  1  0.92857143  0.78571429  0.78571429  1.0
  Cl  Cl678  1  0.92857143  0.78571429  0.92857143  1.0
  Cl  Cl679  1  0.92857143  0.92857143  0.07142857  1.0
  Cl  Cl680  1  0.92857143  0.92857143  0.21428571  1.0
  Cl  Cl681  1  0.92857143  0.92857143  0.35714286  1.0
  Cl  Cl682  1  0.92857143  0.92857143  0.50000000  1.0
  Cl  Cl683  1  0.92857143  0.92857143  0.64285714  1.0
  Cl  Cl684  1  0.92857143  0.92857143  0.78571429  1.0
  Cl  Cl685  1  0.92857143  0.92857143  0.92857143  1.0
