# generated using pymatgen
data_Li11Sc5Cl32
_symmetry_space_group_name_H-M   'P 1'
_cell_length_a   10.40370000
_cell_length_b   10.40370000
_cell_length_c   10.40370000
_cell_angle_alpha   90.00000000
_cell_angle_beta   90.00000000
_cell_angle_gamma   90.00000000
_symmetry_Int_Tables_number   1
_chemical_formula_structural   Li11Sc5Cl32
_chemical_formula_sum   'Li11 Sc5 Cl32'
_cell_volume   1126.06500318
_cell_formula_units_Z   1
loop_
 _symmetry_equiv_pos_site_id
 _symmetry_equiv_pos_as_xyz
  1  'x, y, z'
loop_
 _atom_site_type_symbol
 _atom_site_label
 _atom_site_symmetry_multiplicity
 _atom_site_fract_x
 _atom_site_fract_y
 _atom_site_fract_z
 _atom_site_occupancy
  Li  Li0  1  0.50000000  0.75000000  0.75000000  1.0
  Li  Li1  1  0.25000000  0.75000000  0.00000000  1.0
  Li  Li2  1  0.25000000  0.50000000  0.25000000  1.0
  Li  Li3  1  0.75000000  0.50000000  0.75000000  1.0
  Li  Li4  1  0.25000000  0.25000000  0.50000000  1.0
  Li  Li5  1  0.75000000  0.25000000  0.00000000  1.0
  Li  Li6  1  0.50000000  0.25000000  0.25000000  1.0
  Li  Li7  1  0.00000000  0.75000000  0.25000000  1.0
  Li  Li8  1  0.75000000  0.75000000  0.50000000  1.0
  Li  Li9  1  0.25000000  0.00000000  0.75000000  1.0
  Li  Li10  1  0.00000000  0.00000000  0.50000000  1.0
  Sc  Sc11  1  0.50000000  0.50000000  0.50000000  1.0
  Sc  Sc12  1  0.00000000  0.25000000  0.75000000  1.0
  Sc  Sc13  1  0.50000000  0.00000000  0.00000000  1.0
  Sc  Sc14  1  0.75000000  0.00000000  0.25000000  1.0
  Sc  Sc15  1  0.00000000  0.50000000  0.00000000  1.0
  Cl  Cl16  1  0.25000000  0.25000000  0.25000000  1.0
  Cl  Cl17  1  0.75000000  0.50000000  0.50000000  1.0
  Cl  Cl18  1  0.50000000  0.00000000  0.75000000  1.0
  Cl  Cl19  1  0.00000000  0.75000000  0.00000000  1.0
  Cl  Cl20  1  0.25000000  0.00000000  0.00000000  1.0
  Cl  Cl21  1  0.75000000  0.75000000  0.75000000  1.0
  Cl  Cl22  1  0.50000000  0.25000000  0.50000000  1.0
  Cl  Cl23  1  0.00000000  0.50000000  0.25000000  1.0
  Cl  Cl24  1  0.50000000  0.75000000  0.50000000  1.0
  Cl  Cl25  1  0.75000000  0.50000000  0.00000000  1.0
  Cl  Cl26  1  0.00000000  0.00000000  0.75000000  1.0
  Cl  Cl27  1  0.00000000  0.25000000  0.00000000  1.0
  Cl  Cl28  1  0.50000000  0.50000000  0.25000000  1.0
  Cl  Cl29  1  0.25000000  0.00000000  0.50000000  1.0
  Cl  Cl30  1  0.25000000  0.75000000  0.75000000  1.0
  Cl  Cl31  1  0.50000000  0.00000000  0.25000000  1.0
  Cl  Cl32  1  0.75000000  0.25000000  0.25000000  1.0
  Cl  Cl33  1  0.00000000  0.50000000  0.75000000  1.0
  Cl  Cl34  1  0.25000000  0.50000000  0.50000000  1.0
  Cl  Cl35  1  0.75000000  0.00000000  0.00000000  1.0
  Cl  Cl36  1  0.25000000  0.50000000  0.00000000  1.0
  Cl  Cl37  1  0.00000000  0.00000000  0.25000000  1.0
  Cl  Cl38  1  0.50000000  0.50000000  0.75000000  1.0
  Cl  Cl39  1  0.75000000  0.00000000  0.50000000  1.0
  Cl  Cl40  1  0.00000000  0.25000000  0.50000000  1.0
  Cl  Cl41  1  0.50000000  0.75000000  0.00000000  1.0
  Cl  Cl42  1  0.50000000  0.25000000  0.00000000  1.0
  Cl  Cl43  1  0.00000000  0.75000000  0.50000000  1.0
  Cl  Cl44  1  0.75000000  0.25000000  0.75000000  1.0
  Cl  Cl45  1  0.25000000  0.75000000  0.25000000  1.0
  Cl  Cl46  1  0.75000000  0.75000000  0.25000000  1.0
  Cl  Cl47  1  0.25000000  0.25000000  0.75000000  1.0
