# generated using pymatgen
data_Li17Sc5Cl32
_symmetry_space_group_name_H-M   'P 1'
_cell_length_a   10.16070904
_cell_length_b   11.41453130
_cell_length_c   11.43552995
_cell_angle_alpha   90.00000000
_cell_angle_beta   90.00000000
_cell_angle_gamma   90.00000000
_symmetry_Int_Tables_number   1
_chemical_formula_structural   Li17Sc5Cl32
_chemical_formula_sum   'Li17 Sc5 Cl32'
_cell_volume   1326.28969198
_cell_formula_units_Z   1
loop_
 _symmetry_equiv_pos_site_id
 _symmetry_equiv_pos_as_xyz
  1  'x, y, z'
loop_
 _atom_site_type_symbol
 _atom_site_label
 _atom_site_symmetry_multiplicity
 _atom_site_fract_x
 _atom_site_fract_y
 _atom_site_fract_z
 _atom_site_occupancy
  Li  Li0  1  3.45002000  4.65540000  9.85210000  1
  Li  Li1  1  0.48933600  6.15630000  10.38130000  1
  Li  Li2  1  9.80456000  10.48180000  10.11660000  1
  Li  Li3  1  9.77868000  3.63310000  4.47078000  1
  Li  Li4  1  7.35828000  -0.62579200  6.79639000  1
  Li  Li5  1  2.00034000  1.84345000  0.73565400  1
  Li  Li6  1  4.61202000  1.24384000  3.04527000  1
  Li  Li7  1  0.85793600  0.80005300  5.41527000  1
  Li  Li8  1  2.42146000  9.52768000  0.69525500  1
  Li  Li9  1  2.94680000  9.03361000  4.96058000  1
  Li  Li10  1  6.51457000  8.08291000  9.41057000  1
  Li  Li11  1  4.43885000  1.86560000  6.60239000  1
  Li  Li12  1  7.21434000  6.75360000  2.58744000  1
  Li  Li13  1  2.80919000  8.32702000  8.26554000  1
  Li  Li14  1  2.02589000  5.55058000  6.47510000  1
  Li  Li15  1  6.53747000  4.23162000  11.07530000  1
  Li  Li16  1  9.29369000  7.88976000  5.76926000  1
  Sc  Sc17  1  3.31051000  5.44532000  2.52656000  1
  Sc  Sc18  1  6.09185000  5.74394000  6.72435000  1
  Sc  Sc19  1  9.51391000  2.95503000  8.76327000  1
  Sc  Sc20  1  5.71832000  0.36338300  10.36420000  1
  Sc  Sc21  1  8.55199000  -0.42452300  2.66480000  1
  Cl  Cl22  1  3.26642000  3.14036000  2.11800000  1
  Cl  Cl23  1  7.76229000  5.99541000  4.78845000  1
  Cl  Cl24  1  5.55998000  0.49599000  7.96797000  1
  Cl  Cl25  1  1.19568000  8.43630000  9.72071000  1
  Cl  Cl26  1  3.94310000  0.02853470  0.85739400  1
  Cl  Cl27  1  6.00354000  5.74392000  9.16771000  1
  Cl  Cl28  1  3.14099000  0.34569700  4.78579000  1
  Cl  Cl29  1  2.40503000  5.65772000  0.29367600  1
  Cl  Cl30  1  7.34574000  7.68001000  7.10992000  1
  Cl  Cl31  1  4.24935000  7.19810000  6.95402000  1
  Cl  Cl32  1  7.84948000  4.14220000  7.46989000  1
  Cl  Cl33  1  0.90634300  1.89151000  10.23950000  1
  Cl  Cl34  1  4.79635000  5.52599000  4.38234000  1
  Cl  Cl35  1  1.40790000  7.86897000  6.29673000  1
  Cl  Cl36  1  4.40852000  3.97704000  7.09101000  1
  Cl  Cl37  1  6.85004000  0.35074100  1.11377000  1
  Cl  Cl38  1  9.68113000  1.45991000  3.36495000  1
  Cl  Cl39  1  0.92214900  4.85740000  8.55725000  1
  Cl  Cl40  1  1.47516000  5.10437000  3.93721000  1
  Cl  Cl41  1  7.42013000  10.19840000  9.85705000  1
  Cl  Cl42  1  5.44024000  5.59866000  1.41156000  1
  Cl  Cl43  1  0.14934900  10.67720000  1.03353000  1
  Cl  Cl44  1  8.97399000  4.34313000  10.76510000  1
  Cl  Cl45  1  6.73659000  0.20482100  4.22001000  1
  Cl  Cl46  1  0.55219300  3.00610000  6.50597000  1
  Cl  Cl47  1  4.47397000  9.55754000  9.81610000  1
  Cl  Cl48  1  4.75232000  2.55666000  10.44030000  1
  Cl  Cl49  1  9.23731000  9.95665000  4.65622000  1
  Cl  Cl50  1  7.60261000  1.87765000  9.93247000  1
  Cl  Cl51  1  2.97944000  7.79814000  2.66131000  1
  Cl  Cl52  1  7.75550000  8.81227000  2.42361000  1
  Cl  Cl53  1  9.26574000  0.73963200  7.80971000  1
