# generated using pymatgen
data_Li17Sc5Cl32
_symmetry_space_group_name_H-M   'P 1'
_cell_length_a   10.33217184
_cell_length_b   10.32465995
_cell_length_c   10.24817729
_cell_angle_alpha   90.04963220
_cell_angle_beta   89.99013884
_cell_angle_gamma   89.55001830
_symmetry_Int_Tables_number   1
_chemical_formula_structural   Li17Sc5Cl32
_chemical_formula_sum   'Li17 Sc5 Cl32'
_cell_volume   1093.20206503
_cell_formula_units_Z   1
loop_
 _symmetry_equiv_pos_site_id
 _symmetry_equiv_pos_as_xyz
  1  'x, y, z'
loop_
 _atom_site_type_symbol
 _atom_site_label
 _atom_site_symmetry_multiplicity
 _atom_site_fract_x
 _atom_site_fract_y
 _atom_site_fract_z
 _atom_site_occupancy
  Li  Li0  1  0.38296873  0.37241642  0.88320051  1.0
  Li  Li1  1  0.24973680  0.75092654  0.50581913  1.0
  Li  Li2  1  0.00589441  0.75036975  0.76042306  1.0
  Li  Li3  1  0.74975360  0.50571119  0.25002184  1.0
  Li  Li4  1  0.49384219  0.00572232  0.50589478  1.0
  Li  Li5  1  0.12767193  0.12732570  0.33808057  1.0
  Li  Li6  1  0.49992759  0.49525331  0.49546534  1.0
  Li  Li7  1  0.48313235  0.75039348  0.74946131  1.0
  Li  Li8  1  0.23898581  0.76095946  0.99386556  1.0
  Li  Li9  1  0.27249037  0.26117947  0.51657404  1.0
  Li  Li10  1  0.75104846  0.24986814  0.00466760  1.0
  Li  Li11  1  0.50562250  0.26084303  0.26147907  1.0
  Li  Li12  1  0.00191525  0.74287429  0.24005252  1.0
  Li  Li13  1  0.74971164  0.75004386  0.50497975  1.0
  Li  Li14  1  0.24984272  0.99439120  0.74977430  1.0
  Li  Li15  1  0.00529109  0.50548877  0.00486233  1.0
  Li  Li16  1  0.98343335  0.98338713  0.51696917  1.0
  Sc  Sc17  1  0.25044077  0.50567627  0.24996627  1.0
  Sc  Sc18  1  0.74962242  0.50522924  0.74966535  1.0
  Sc  Sc19  1  0.00478558  0.23951415  0.75031501  1.0
  Sc  Sc20  1  0.48917391  0.99319626  0.99300048  1.0
  Sc  Sc21  1  0.75009304  0.99459101  0.24991852  1.0
  Cl  Cl22  1  0.26509282  0.26665902  0.24487928  1.0
  Cl  Cl23  1  0.74113585  0.50675806  0.50594354  1.0
  Cl  Cl24  1  0.49410396  0.00124894  0.75588308  1.0
  Cl  Cl25  1  0.00804809  0.73699247  0.99572363  1.0
  Cl  Cl26  1  0.25719419  0.00180814  0.99960046  1.0
  Cl  Cl27  1  0.75726264  0.73828655  0.74996818  1.0
  Cl  Cl28  1  0.49561202  0.24789657  0.49361104  1.0
  Cl  Cl29  1  0.00927853  0.50010482  0.24531250  1.0
  Cl  Cl30  1  0.49742723  0.75753736  0.51451209  1.0
  Cl  Cl31  1  0.75528671  0.49096867  0.99156456  1.0
  Cl  Cl32  1  0.00013160  0.00597438  0.75256565  1.0
  Cl  Cl33  1  0.99603020  0.25697081  0.98450661  1.0
  Cl  Cl34  1  0.49529997  0.49954859  0.25186399  1.0
  Cl  Cl35  1  0.24704950  0.00774048  0.49658083  1.0
  Cl  Cl36  1  0.24402137  0.76021009  0.74735055  1.0
  Cl  Cl37  1  0.50670838  -0.00086184  0.24292843  1.0
  Cl  Cl38  1  0.74775668  0.23693670  0.24387711  1.0
  Cl  Cl39  1  0.99255859  0.48906090  0.74247458  1.0
  Cl  Cl40  1  0.25586278  0.50138200  0.48992214  1.0
  Cl  Cl41  1  0.73651109  -0.00245999  0.00672893  1.0
  Cl  Cl42  1  0.24978358  0.50843836  0.00749560  1.0
  Cl  Cl43  1  0.98596567  0.98714142  0.24684745  1.0
  Cl  Cl44  1  0.51106899  0.50339188  0.74657104  1.0
  Cl  Cl45  1  0.74197747  0.99688185  0.48830388  1.0
  Cl  Cl46  1  0.01114008  0.23668047  0.50723306  1.0
  Cl  Cl47  1  0.48942695  0.76117389  0.99122941  1.0
  Cl  Cl48  1  0.51089135  0.23639858  0.00780390  1.0
  Cl  Cl49  1  0.99837981  0.75792781  0.50733580  1.0
  Cl  Cl50  1  0.76168515  0.26037776  0.74737386  1.0
  Cl  Cl51  1  0.24325540  0.74165918  0.25334057  1.0
  Cl  Cl52  1  0.75547002  0.75464593  0.25544715  1.0
  Cl  Cl53  1  0.24319884  0.24715918  0.74976456  1.0
