# generated using pymatgen
data_Li17Sc5Cl32
_symmetry_space_group_name_H-M   'P 1'
_cell_length_a   10.24489497
_cell_length_b   10.36368045
_cell_length_c   10.35458185
_cell_angle_alpha   91.05774491
_cell_angle_beta   90.33800754
_cell_angle_gamma   89.90056619
_symmetry_Int_Tables_number   1
_chemical_formula_structural   Li17Sc5Cl32
_chemical_formula_sum   'Li17 Sc5 Cl32'
_cell_volume   1099.18791908
_cell_formula_units_Z   1
loop_
 _symmetry_equiv_pos_site_id
 _symmetry_equiv_pos_as_xyz
  1  'x, y, z'
loop_
 _atom_site_type_symbol
 _atom_site_label
 _atom_site_symmetry_multiplicity
 _atom_site_fract_x
 _atom_site_fract_y
 _atom_site_fract_z
 _atom_site_occupancy
  Li  Li0  1  0.38325880  0.38296320  0.87203260  1.0
  Li  Li1  1  0.23970353  0.01416226  0.25631779  1.0
  Li  Li2  1  0.74970198  0.74953205  0.99393982  1.0
  Li  Li3  1  0.99458184  0.74989348  0.72896971  1.0
  Li  Li4  1  0.49444083  0.99424575  0.51664605  1.0
  Li  Li5  1  0.08263309  0.37230011  0.37223680  1.0
  Li  Li6  1  0.50545160  0.76073019  0.74909823  1.0
  Li  Li7  1  0.26098592  0.51690864  0.23940605  1.0
  Li  Li8  1  0.74980002  0.50545128  0.73903997  1.0
  Li  Li9  1  0.27259045  0.23868538  0.50521893  1.0
  Li  Li10  1  0.49386517  0.99520336  0.98299014  1.0
  Li  Li11  1  0.48297189  0.26030618  0.26056719  1.0
  Li  Li12  1  0.00489196  0.73960154  0.27239548  1.0
  Li  Li13  1  0.75021872  0.73895459  0.51650969  1.0
  Li  Li14  1  0.26054475  0.99444162  0.73892828  1.0
  Li  Li15  1  0.00524292  0.50522602  0.00489788  1.0
  Li  Li16  1  0.01627441  0.98341208  0.50551533  1.0
  Sc  Sc17  1  0.50375025  0.49912374  0.49321144  1.0
  Sc  Sc18  1  0.24971015  0.75696612  0.99486351  1.0
  Sc  Sc19  1  0.00472556  0.24910888  0.74998186  1.0
  Sc  Sc20  1  0.74965415  0.26062344  0.00555932  1.0
  Sc  Sc21  1  0.74981116  0.99473132  0.26056403  1.0
  Cl  Cl22  1  0.24465170  0.24762839  0.26362724  1.0
  Cl  Cl23  1  0.74098166  0.50092997  0.50304418  1.0
  Cl  Cl24  1  0.49232576  0.99148937  0.74900529  1.0
  Cl  Cl25  1  0.00532806  0.74522183  0.98805082  1.0
  Cl  Cl26  1  0.25221323  0.99356826  0.00417188  1.0
  Cl  Cl27  1  0.75278527  0.73944526  0.76064064  1.0
  Cl  Cl28  1  0.50519880  0.25817610  0.49750749  1.0
  Cl  Cl29  1  0.01354599  0.51610342  0.23195926  1.0
  Cl  Cl30  1  0.50576001  0.73856826  0.50581804  1.0
  Cl  Cl31  1  0.75222434  0.49194431  0.99797566  1.0
  Cl  Cl32  1  0.01045644  0.01073921  0.74540964  1.0
  Cl  Cl33  1  0.99335388  0.25130769  0.99396370  1.0
  Cl  Cl34  1  0.49639318  0.49280337  0.25812135  1.0
  Cl  Cl35  1  0.25716436  0.00556260  0.49634982  1.0
  Cl  Cl36  1  0.24221817  0.75504257  0.75762613  1.0
  Cl  Cl37  1  0.50745051  0.01275160  0.24956874  1.0
  Cl  Cl38  1  0.75496231  0.24167645  0.24332510  1.0
  Cl  Cl39  1  0.99419672  0.48454358  0.75680800  1.0
  Cl  Cl40  1  0.25786346  0.48787357  0.49052503  1.0
  Cl  Cl41  1  0.74533884  0.01120923  0.01144665  1.0
  Cl  Cl42  1  0.25046424  0.51460292  0.00083310  1.0
  Cl  Cl43  1  0.98920592  0.99224867  0.26317208  1.0
  Cl  Cl44  1  0.50596733  0.50780244  0.73699193  1.0
  Cl  Cl45  1  0.73805745  0.99139724  0.49183946  1.0
  Cl  Cl46  1  0.99282419  0.23346007  0.51584529  1.0
  Cl  Cl47  1  0.49154313  0.75628534  0.98944918  1.0
  Cl  Cl48  1  0.50976494  0.24524864  0.00631037  1.0
  Cl  Cl49  1  0.98359692  0.75619650  0.50280901  1.0
  Cl  Cl50  1  0.75767040  0.24465446  0.76599643  1.0
  Cl  Cl51  1  0.24560592  0.76144294  0.23314988  1.0
  Cl  Cl52  1  0.75063606  0.76279440  0.23018579  1.0
  Cl  Cl53  1  0.24444161  0.24471007  0.74958273  1.0
