# generated using pymatgen
data_Li17Sc5Cl32
_symmetry_space_group_name_H-M   'P 1'
_cell_length_a   10.34774726
_cell_length_b   10.20071517
_cell_length_c   10.43644149
_cell_angle_alpha   90.11067396
_cell_angle_beta   90.89690927
_cell_angle_gamma   90.06516652
_symmetry_Int_Tables_number   1
_chemical_formula_structural   Li17Sc5Cl32
_chemical_formula_sum   'Li17 Sc5 Cl32'
_cell_volume   1101.47477750
_cell_formula_units_Z   1
loop_
 _symmetry_equiv_pos_site_id
 _symmetry_equiv_pos_as_xyz
  1  'x, y, z'
loop_
 _atom_site_type_symbol
 _atom_site_label
 _atom_site_symmetry_multiplicity
 _atom_site_fract_x
 _atom_site_fract_y
 _atom_site_fract_z
 _atom_site_occupancy
  Li  Li0  1  0.37273678  0.37195706  0.87281867  1.0
  Li  Li1  1  0.77168992  0.75079987  0.00594878  1.0
  Li  Li2  1  0.26102792  0.74904069  0.51531722  1.0
  Li  Li3  1  0.74966442  0.49400299  0.25057016  1.0
  Li  Li4  1  0.50591378  0.00629396  0.50566231  1.0
  Li  Li5  1  0.12731938  0.91282854  0.13042475  1.0
  Li  Li6  1  0.49463804  0.49350639  0.49475724  1.0
  Li  Li7  1  0.49455356  0.76064625  0.73988030  1.0
  Li  Li8  1  0.26083227  0.73846521  0.96179536  1.0
  Li  Li9  1  0.26113074  0.25053463  0.49410025  1.0
  Li  Li10  1  0.75040706  0.24996945  0.01643235  1.0
  Li  Li11  1  0.50529023  0.25038130  0.26148141  1.0
  Li  Li12  1  0.98365715  0.72705603  0.26083979  1.0
  Li  Li13  1  0.73825259  0.74986620  0.48328458  1.0
  Li  Li14  1  0.26087158  0.98402418  0.75005576  1.0
  Li  Li15  1  0.74889199  0.01718764  0.25019470  1.0
  Li  Li16  1  0.00544114  0.50555383  0.00567561  1.0
  Sc  Sc17  1  0.24988626  0.49466497  0.25064405  1.0
  Sc  Sc18  1  0.74778448  0.50615701  0.74408403  1.0
  Sc  Sc19  1  -0.00391214  0.24916483  0.75626912  1.0
  Sc  Sc20  1  0.50600374  0.99487852  0.00480094  1.0
  Sc  Sc21  1  0.99296032  0.99491952  0.50056092  1.0
  Cl  Cl22  1  0.25202373  0.25952345  0.25460774  1.0
  Cl  Cl23  1  0.73924559  0.50796631  0.50953982  1.0
  Cl  Cl24  1  0.49913270  0.00291102  0.76408156  1.0
  Cl  Cl25  1  0.00956795  0.75210709  0.01600557  1.0
  Cl  Cl26  1  0.26518781  0.99370179  0.98647862  1.0
  Cl  Cl27  1  0.74977992  0.74187167  0.75474126  1.0
  Cl  Cl28  1  0.48818642  0.24069030  0.49382023  1.0
  Cl  Cl29  1  0.00872546  0.49295154  0.24297246  1.0
  Cl  Cl30  1  0.49991700  0.76504778  0.50999371  1.0
  Cl  Cl31  1  0.76003041  0.50331913  0.98618382  1.0
  Cl  Cl32  1  -0.00565429  0.00537174  0.74167894  1.0
  Cl  Cl33  1  0.99428641  0.25139772  0.98539208  1.0
  Cl  Cl34  1  0.48828347  0.50047826  0.25604651  1.0
  Cl  Cl35  1  0.23485361  -0.00089116  0.50889263  1.0
  Cl  Cl36  1  0.25895132  0.75146751  0.74223933  1.0
  Cl  Cl37  1  0.50488071  0.00331473  0.23968861  1.0
  Cl  Cl38  1  0.73945400  0.26102965  0.24107477  1.0
  Cl  Cl39  1  0.99094994  0.49326245  0.74706192  1.0
  Cl  Cl40  1  0.25459362  0.50238434  0.48814404  1.0
  Cl  Cl41  1  0.74403008  -0.00195427  0.01061432  1.0
  Cl  Cl42  1  0.24659481  0.50543914  0.00916780  1.0
  Cl  Cl43  1  0.98754237  0.00886060  0.26682843  1.0
  Cl  Cl44  1  0.51015919  0.50184366  0.74370847  1.0
  Cl  Cl45  1  0.75546002  0.99154143  0.49044554  1.0
  Cl  Cl46  1  -0.00243001  0.24023534  0.51398476  1.0
  Cl  Cl47  1  0.50460648  0.75633531  0.99011138  1.0
  Cl  Cl48  1  0.50667900  0.23964398  0.00280832  1.0
  Cl  Cl49  1  -0.00117292  0.75760533  0.49965201  1.0
  Cl  Cl50  1  0.75540317  0.25982866  0.75273660  1.0
  Cl  Cl51  1  0.23539564  0.74327609  0.25627562  1.0
  Cl  Cl52  1  0.75618168  0.73369393  0.24610120  1.0
  Cl  Cl53  1  0.23411354  0.24484640  0.74332364  1.0
