# generated using pymatgen
data_Li17Sc5Cl32
_symmetry_space_group_name_H-M   'P 1'
_cell_length_a   10.24142078
_cell_length_b   10.36151942
_cell_length_c   10.36914556
_cell_angle_alpha   90.32206557
_cell_angle_beta   90.02081254
_cell_angle_gamma   90.39904682
_symmetry_Int_Tables_number   1
_chemical_formula_structural   Li17Sc5Cl32
_chemical_formula_sum   'Li17 Sc5 Cl32'
_cell_volume   1100.29514570
_cell_formula_units_Z   1
loop_
 _symmetry_equiv_pos_site_id
 _symmetry_equiv_pos_as_xyz
  1  'x, y, z'
loop_
 _atom_site_type_symbol
 _atom_site_label
 _atom_site_symmetry_multiplicity
 _atom_site_fract_x
 _atom_site_fract_y
 _atom_site_fract_z
 _atom_site_occupancy
  Li  Li0  1  0.37224119  0.38319213  0.88289753  1.0
  Li  Li1  1  0.75033650  0.76161220  0.00559392  1.0
  Li  Li2  1  0.26082919  0.72885154  0.49455502  1.0
  Li  Li3  1  0.76052639  0.50516161  0.25025554  1.0
  Li  Li4  1  0.50520855  0.99468336  0.51639729  1.0
  Li  Li5  1  0.91643808  0.12752683  0.12788659  1.0
  Li  Li6  1  0.49442432  0.50589053  0.49443364  1.0
  Li  Li7  1  0.49455163  0.77169407  0.74970865  1.0
  Li  Li8  1  0.22815644  0.49482528  0.26090012  1.0
  Li  Li9  1  0.26070307  0.27192934  0.49412443  1.0
  Li  Li10  1  0.50081076  0.99672572  0.98407058  1.0
  Li  Li11  1  0.72735945  0.25005403  0.98359500  1.0
  Li  Li12  1  0.99497525  0.72839059  0.24983080  1.0
  Li  Li13  1  0.73880706  0.74986269  0.49401702  1.0
  Li  Li14  1  0.26898995  0.99380080  0.75901170  1.0
  Li  Li15  1  0.72752732  0.97180561  0.25023133  1.0
  Li  Li16  1  0.00531968  0.50593703  0.01643305  1.0
  Sc  Sc17  1  0.24939744  0.75989911  0.00167900  1.0
  Sc  Sc18  1  0.74929656  0.50754484  0.74486788  1.0
  Sc  Sc19  1  0.00512806  0.25029338  0.74932650  1.0
  Sc  Sc20  1  0.49454287  0.24977022  0.25042962  1.0
  Sc  Sc21  1  0.99622967  0.99023847  0.50184553  1.0
  Cl  Cl22  1  0.25869320  0.25697622  0.25465065  1.0
  Cl  Cl23  1  0.74443790  0.51107820  0.50978260  1.0
  Cl  Cl24  1  0.49794948  0.00149882  0.74836296  1.0
  Cl  Cl25  1  0.00646802  0.74495745  0.00222872  1.0
  Cl  Cl26  1  0.25115736  0.99272677  0.99436983  1.0
  Cl  Cl27  1  0.74924886  0.74101936  0.75684777  1.0
  Cl  Cl28  1  0.49948177  0.24508877  0.48841544  1.0
  Cl  Cl29  1  0.99222547  0.49875237  0.24306405  1.0
  Cl  Cl30  1  0.49897808  0.75550551  0.51135048  1.0
  Cl  Cl31  1  0.75488355  0.50023474  0.98513866  1.0
  Cl  Cl32  1  -0.00892455  0.01190598  0.74472209  1.0
  Cl  Cl33  1  0.00312657  0.26545818  0.98329744  1.0
  Cl  Cl34  1  0.51405142  0.48587131  0.25442823  1.0
  Cl  Cl35  1  0.23811871  -0.00619733  0.51438337  1.0
  Cl  Cl36  1  0.25115848  0.75271904  0.76228412  1.0
  Cl  Cl37  1  0.49975405  0.01191506  0.25538191  1.0
  Cl  Cl38  1  0.74495130  0.25419781  0.23218934  1.0
  Cl  Cl39  1  0.99468157  0.48968993  0.74345354  1.0
  Cl  Cl40  1  0.26106140  0.50170242  0.49041664  1.0
  Cl  Cl41  1  0.75143603  0.00635549  0.01736950  1.0
  Cl  Cl42  1  0.24477350  0.51486560  0.00871728  1.0
  Cl  Cl43  1  0.00217222  0.98759025  0.26724917  1.0
  Cl  Cl44  1  0.51051023  0.50001611  0.74388293  1.0
  Cl  Cl45  1  0.75583253  0.98910416  0.49020204  1.0
  Cl  Cl46  1  0.00357441  0.23560538  0.50892186  1.0
  Cl  Cl47  1  0.49344091  0.75977195  0.99368412  1.0
  Cl  Cl48  1  0.49586456  0.24015911  0.00681281  1.0
  Cl  Cl49  1  0.00005014  0.75650571  0.50052749  1.0
  Cl  Cl50  1  0.75916281  0.26166250  0.74808685  1.0
  Cl  Cl51  1  0.24234329  0.74350907  0.24078985  1.0
  Cl  Cl52  1  0.75534550  0.74262400  0.24486666  1.0
  Cl  Cl53  1  0.24319182  0.24744069  0.74203083  1.0
