# generated using pymatgen
data_Li17Sc5Cl32
_symmetry_space_group_name_H-M   'P 1'
_cell_length_a   10.30093011
_cell_length_b   10.27417549
_cell_length_c   10.37801532
_cell_angle_alpha   89.77929030
_cell_angle_beta   89.48807114
_cell_angle_gamma   89.76517970
_symmetry_Int_Tables_number   1
_chemical_formula_structural   Li17Sc5Cl32
_chemical_formula_sum   'Li17 Sc5 Cl32'
_cell_volume   1098.28128586
_cell_formula_units_Z   1
loop_
 _symmetry_equiv_pos_site_id
 _symmetry_equiv_pos_as_xyz
  1  'x, y, z'
loop_
 _atom_site_type_symbol
 _atom_site_label
 _atom_site_symmetry_multiplicity
 _atom_site_fract_x
 _atom_site_fract_y
 _atom_site_fract_z
 _atom_site_occupancy
  Li  Li0  1  0.37214192  0.38303988  0.87282251  1.0
  Li  Li1  1  0.26097632  0.99468091  0.23867484  1.0
  Li  Li2  1  -0.00576817  0.74985719  0.76136054  1.0
  Li  Li3  1  0.75051997  0.50549696  0.27170095  1.0
  Li  Li4  1  0.50538498  0.00588572  0.49454065  1.0
  Li  Li5  1  0.62691306  0.82762988  0.12805696  1.0
  Li  Li6  1  0.50526605  0.48259062  0.49451744  1.0
  Li  Li7  1  0.23860308  0.76098314  -0.00484794  1.0
  Li  Li8  1  0.74939286  0.50531305  0.72813849  1.0
  Li  Li9  1  0.27120514  0.25051548  0.49427206  1.0
  Li  Li10  1  0.48287158  0.01640060  0.98369457  1.0
  Li  Li11  1  0.49471487  0.24973672  0.26126545  1.0
  Li  Li12  1  0.00502691  0.74965545  0.21711636  1.0
  Li  Li13  1  0.74956509  0.73883831  0.49555882  1.0
  Li  Li14  1  0.25026650  0.99455817  0.77234420  1.0
  Li  Li15  1  0.76094583  0.01682902  0.26116322  1.0
  Li  Li16  1  0.00480047  0.51627484  0.00580655  1.0
  Sc  Sc17  1  0.49545955  0.75105228  0.74367339  1.0
  Sc  Sc18  1  0.25001620  0.50002863  0.25846647  1.0
  Sc  Sc19  1  0.00492670  0.26060850  0.74990640  1.0
  Sc  Sc20  1  0.74971722  0.25001895  0.00583604  1.0
  Sc  Sc21  1  0.99506057  0.99466925  0.49492284  1.0
  Cl  Cl22  1  0.25439520  0.25680934  0.25422224  1.0
  Cl  Cl23  1  0.73831818  0.50521662  0.49881146  1.0
  Cl  Cl24  1  0.49073065  0.99209676  0.74519497  1.0
  Cl  Cl25  1  0.00312358  0.74573840  0.98822309  1.0
  Cl  Cl26  1  0.25566971  0.99759261  0.00482287  1.0
  Cl  Cl27  1  0.73670230  0.74385720  0.74713815  1.0
  Cl  Cl28  1  0.49642791  0.23904151  0.49245087  1.0
  Cl  Cl29  1  0.00956893  0.50479069  0.24528215  1.0
  Cl  Cl30  1  0.50245061  0.76036735  0.50923303  1.0
  Cl  Cl31  1  0.75748224  0.48639569  0.00687791  1.0
  Cl  Cl32  1  0.00176703  0.01106833  0.74297015  1.0
  Cl  Cl33  1  0.99364013  0.24462022  0.98886244  1.0
  Cl  Cl34  1  0.49155821  0.49684443  0.25373731  1.0
  Cl  Cl35  1  0.23721925  0.00613691  0.49510661  1.0
  Cl  Cl36  1  0.25446646  0.75523464  0.75437739  1.0
  Cl  Cl37  1  0.50574500  -0.00464701  0.24868489  1.0
  Cl  Cl38  1  0.74673061  0.25444370  0.24154031  1.0
  Cl  Cl39  1  0.99465453  0.49436477  0.75395514  1.0
  Cl  Cl40  1  0.25557819  0.49091449  0.49019412  1.0
  Cl  Cl41  1  0.73884531  0.00770375  0.01580955  1.0
  Cl  Cl42  1  0.24388020  0.50258661  0.01332263  1.0
  Cl  Cl43  1  0.00428995  0.99595115  0.26152617  1.0
  Cl  Cl44  1  0.50311831  0.50817121  0.73826843  1.0
  Cl  Cl45  1  0.75821500  -0.00078757  0.49478610  1.0
  Cl  Cl46  1  -0.00247462  0.24194807  0.51308431  1.0
  Cl  Cl47  1  0.48576166  0.75047169  0.98232595  1.0
  Cl  Cl48  1  0.50976529  0.25003243  0.00095663  1.0
  Cl  Cl49  1  0.99555173  0.76212060  0.52344255  1.0
  Cl  Cl50  1  0.76134291  0.25167303  0.76268685  1.0
  Cl  Cl51  1  0.24260784  0.74233431  0.24410503  1.0
  Cl  Cl52  1  0.77298852  0.74789806  0.26388179  1.0
  Cl  Cl53  1  0.24187243  0.24334648  0.74512815  1.0
