# generated using pymatgen
data_Li17Sc5Cl32
_symmetry_space_group_name_H-M   'P 1'
_cell_length_a   10.34421375
_cell_length_b   10.36058335
_cell_length_c   10.26750186
_cell_angle_alpha   89.47931750
_cell_angle_beta   90.20651562
_cell_angle_gamma   89.60329713
_symmetry_Int_Tables_number   1
_chemical_formula_structural   Li17Sc5Cl32
_chemical_formula_sum   'Li17 Sc5 Cl32'
_cell_volume   1100.31040818
_cell_formula_units_Z   1
loop_
 _symmetry_equiv_pos_site_id
 _symmetry_equiv_pos_as_xyz
  1  'x, y, z'
loop_
 _atom_site_type_symbol
 _atom_site_label
 _atom_site_symmetry_multiplicity
 _atom_site_fract_x
 _atom_site_fract_y
 _atom_site_fract_z
 _atom_site_occupancy
  Li  Li0  1  0.37200505  0.38328454  0.88328389  1.0
  Li  Li1  1  0.26080712  0.00560733  0.23849901  1.0
  Li  Li2  1  0.75119313  0.75054538  0.00577857  1.0
  Li  Li3  1  0.00577002  0.73902286  0.76055405  1.0
  Li  Li4  1  0.50582319  0.01530511  0.49477725  1.0
  Li  Li5  1  0.62673700  0.62685518  0.32089765  1.0
  Li  Li6  1  0.49478418  0.46159710  0.50544961  1.0
  Li  Li7  1  0.23901243  0.76074847  0.00598222  1.0
  Li  Li8  1  0.74520338  0.50207466  0.73066004  1.0
  Li  Li9  1  0.26113994  0.25037219  0.49438683  1.0
  Li  Li10  1  0.49453483  0.99501110  0.00578462  1.0
  Li  Li11  1  0.50515493  0.23966889  0.26107210  1.0
  Li  Li12  1  0.00514977  0.73945351  0.23854398  1.0
  Li  Li13  1  0.76113184  0.75064616  0.51618197  1.0
  Li  Li14  1  0.26069087  0.99558142  0.77193789  1.0
  Li  Li15  1  0.73903755  0.00552702  0.24934027  1.0
  Li  Li16  1  -0.00527018  0.50578492  0.00598828  1.0
  Sc  Sc17  1  0.49465486  0.75068732  0.74967785  1.0
  Sc  Sc18  1  0.23880214  0.49482914  0.26041291  1.0
  Sc  Sc19  1  0.00121822  0.25937401  0.74917746  1.0
  Sc  Sc20  1  0.74937748  0.24993201  0.00575194  1.0
  Sc  Sc21  1  0.99986307  0.99732793  0.49407777  1.0
  Cl  Cl22  1  0.24819857  0.25625871  0.25211151  1.0
  Cl  Cl23  1  0.72613578  0.52178745  0.49609232  1.0
  Cl  Cl24  1  0.49508003  0.98838022  0.74668941  1.0
  Cl  Cl25  1  0.99394767  0.74273386  0.98969169  1.0
  Cl  Cl26  1  0.26213617  0.99009210  0.00446592  1.0
  Cl  Cl27  1  0.74200545  0.74442154  0.75628390  1.0
  Cl  Cl28  1  0.49164123  0.23922822  0.49812622  1.0
  Cl  Cl29  1  0.00509759  0.50482094  0.24824352  1.0
  Cl  Cl30  1  0.51039575  0.76600085  0.50900869  1.0
  Cl  Cl31  1  0.75509413  0.48871376  0.98939725  1.0
  Cl  Cl32  1  0.00633405  0.01218109  0.74336337  1.0
  Cl  Cl33  1  0.99310604  0.24930136  0.99034696  1.0
  Cl  Cl34  1  0.48099866  0.48313390  0.24894017  1.0
  Cl  Cl35  1  0.24046415  0.00837947  0.50096770  1.0
  Cl  Cl36  1  0.25681844  0.75548642  0.75756235  1.0
  Cl  Cl37  1  0.49875606  0.00624953  0.25373719  1.0
  Cl  Cl38  1  0.74954291  0.24642952  0.23826985  1.0
  Cl  Cl39  1  0.99361909  0.49330654  0.74859056  1.0
  Cl  Cl40  1  0.25510432  0.48989725  0.49478418  1.0
  Cl  Cl41  1  0.74427502  0.01215790  0.00142624  1.0
  Cl  Cl42  1  0.23777694  0.50896193  0.01165691  1.0
  Cl  Cl43  1  0.01145504  0.99272000  0.26042368  1.0
  Cl  Cl44  1  0.50015107  0.51112007  0.74390729  1.0
  Cl  Cl45  1  0.76331442  0.99785964  0.49376958  1.0
  Cl  Cl46  1  -0.00085884  0.24247397  0.50907555  1.0
  Cl  Cl47  1  0.51024041  0.75412075  0.98856256  1.0
  Cl  Cl48  1  0.51117557  0.24428454  -0.00100112  1.0
  Cl  Cl49  1  0.99915547  0.76329179  0.52095946  1.0
  Cl  Cl50  1  0.76117105  0.25416859  0.75548502  1.0
  Cl  Cl51  1  0.24362823  0.73624830  0.24734291  1.0
  Cl  Cl52  1  0.76869357  0.76968094  0.24245380  1.0
  Cl  Cl53  1  0.23852514  0.24687264  0.75004923  1.0
