# generated using pymatgen
data_NaCl
_symmetry_space_group_name_H-M   'P 1'
_cell_length_a   16.09854168
_cell_length_b   16.09854168
_cell_length_c   16.09854168
_cell_angle_alpha   60.00000000
_cell_angle_beta   60.00000000
_cell_angle_gamma   60.00000000
_symmetry_Int_Tables_number   1
_chemical_formula_structural   NaCl
_chemical_formula_sum   'Na64 Cl64'
_cell_volume   2950.15348483
_cell_formula_units_Z   64
loop_
 _symmetry_equiv_pos_site_id
 _symmetry_equiv_pos_as_xyz
  1  'x, y, z'
loop_
 _atom_site_type_symbol
 _atom_site_label
 _atom_site_symmetry_multiplicity
 _atom_site_fract_x
 _atom_site_fract_y
 _atom_site_fract_z
 _atom_site_occupancy
  Na  Na0  1  0.00000000  0.00000000  0.00000000  1.0
  Na  Na1  1  0.00000000  0.00000000  0.25000000  1.0
  Na  Na2  1  0.00000000  0.00000000  0.50000000  1.0
  Na  Na3  1  0.00000000  0.00000000  0.75000000  1.0
  Na  Na4  1  0.00000000  0.25000000  0.00000000  1.0
  Na  Na5  1  0.00000000  0.25000000  0.25000000  1.0
  Na  Na6  1  0.00000000  0.25000000  0.50000000  1.0
  Na  Na7  1  0.00000000  0.25000000  0.75000000  1.0
  Na  Na8  1  0.00000000  0.50000000  0.00000000  1.0
  Na  Na9  1  0.00000000  0.50000000  0.25000000  1.0
  Na  Na10  1  0.00000000  0.50000000  0.50000000  1.0
  Na  Na11  1  0.00000000  0.50000000  0.75000000  1.0
  Na  Na12  1  0.00000000  0.75000000  0.00000000  1.0
  Na  Na13  1  0.00000000  0.75000000  0.25000000  1.0
  Na  Na14  1  0.00000000  0.75000000  0.50000000  1.0
  Na  Na15  1  0.00000000  0.75000000  0.75000000  1.0
  Na  Na16  1  0.25000000  0.00000000  0.00000000  1.0
  Na  Na17  1  0.25000000  0.00000000  0.25000000  1.0
  Na  Na18  1  0.25000000  0.00000000  0.50000000  1.0
  Na  Na19  1  0.25000000  0.00000000  0.75000000  1.0
  Na  Na20  1  0.25000000  0.25000000  0.00000000  1.0
  Na  Na21  1  0.25000000  0.25000000  0.25000000  1.0
  Na  Na22  1  0.25000000  0.25000000  0.50000000  1.0
  Na  Na23  1  0.25000000  0.25000000  0.75000000  1.0
  Na  Na24  1  0.25000000  0.50000000  0.00000000  1.0
  Na  Na25  1  0.25000000  0.50000000  0.25000000  1.0
  Na  Na26  1  0.25000000  0.50000000  0.50000000  1.0
  Na  Na27  1  0.25000000  0.50000000  0.75000000  1.0
  Na  Na28  1  0.25000000  0.75000000  0.00000000  1.0
  Na  Na29  1  0.25000000  0.75000000  0.25000000  1.0
  Na  Na30  1  0.25000000  0.75000000  0.50000000  1.0
  Na  Na31  1  0.25000000  0.75000000  0.75000000  1.0
  Na  Na32  1  0.50000000  0.00000000  0.00000000  1.0
  Na  Na33  1  0.50000000  0.00000000  0.25000000  1.0
  Na  Na34  1  0.50000000  0.00000000  0.50000000  1.0
  Na  Na35  1  0.50000000  0.00000000  0.75000000  1.0
  Na  Na36  1  0.50000000  0.25000000  0.00000000  1.0
  Na  Na37  1  0.50000000  0.25000000  0.25000000  1.0
  Na  Na38  1  0.50000000  0.25000000  0.50000000  1.0
  Na  Na39  1  0.50000000  0.25000000  0.75000000  1.0
  Na  Na40  1  0.50000000  0.50000000  0.00000000  1.0
  Na  Na41  1  0.50000000  0.50000000  0.25000000  1.0
  Na  Na42  1  0.50000000  0.50000000  0.50000000  1.0
  Na  Na43  1  0.50000000  0.50000000  0.75000000  1.0
  Na  Na44  1  0.50000000  0.75000000  0.00000000  1.0
  Na  Na45  1  0.50000000  0.75000000  0.25000000  1.0
  Na  Na46  1  0.50000000  0.75000000  0.50000000  1.0
  Na  Na47  1  0.50000000  0.75000000  0.75000000  1.0
  Na  Na48  1  0.75000000  0.00000000  0.00000000  1.0
  Na  Na49  1  0.75000000  0.00000000  0.25000000  1.0
  Na  Na50  1  0.75000000  0.00000000  0.50000000  1.0
  Na  Na51  1  0.75000000  0.00000000  0.75000000  1.0
  Na  Na52  1  0.75000000  0.25000000  0.00000000  1.0
  Na  Na53  1  0.75000000  0.25000000  0.25000000  1.0
  Na  Na54  1  0.75000000  0.25000000  0.50000000  1.0
  Na  Na55  1  0.75000000  0.25000000  0.75000000  1.0
  Na  Na56  1  0.75000000  0.50000000  0.00000000  1.0
  Na  Na57  1  0.75000000  0.50000000  0.25000000  1.0
  Na  Na58  1  0.75000000  0.50000000  0.50000000  1.0
  Na  Na59  1  0.75000000  0.50000000  0.75000000  1.0
  Na  Na60  1  0.75000000  0.75000000  0.00000000  1.0
  Na  Na61  1  0.75000000  0.75000000  0.25000000  1.0
  Na  Na62  1  0.75000000  0.75000000  0.50000000  1.0
  Na  Na63  1  0.75000000  0.75000000  0.75000000  1.0
  Cl  Cl64  1  0.12500000  0.12500000  0.12500000  1.0
  Cl  Cl65  1  0.12500000  0.12500000  0.37500000  1.0
  Cl  Cl66  1  0.12500000  0.12500000  0.62500000  1.0
  Cl  Cl67  1  0.12500000  0.12500000  0.87500000  1.0
  Cl  Cl68  1  0.12500000  0.37500000  0.12500000  1.0
  Cl  Cl69  1  0.12500000  0.37500000  0.37500000  1.0
  Cl  Cl70  1  0.12500000  0.37500000  0.62500000  1.0
  Cl  Cl71  1  0.12500000  0.37500000  0.87500000  1.0
  Cl  Cl72  1  0.12500000  0.62500000  0.12500000  1.0
  Cl  Cl73  1  0.12500000  0.62500000  0.37500000  1.0
  Cl  Cl74  1  0.12500000  0.62500000  0.62500000  1.0
  Cl  Cl75  1  0.12500000  0.62500000  0.87500000  1.0
  Cl  Cl76  1  0.12500000  0.87500000  0.12500000  1.0
  Cl  Cl77  1  0.12500000  0.87500000  0.37500000  1.0
  Cl  Cl78  1  0.12500000  0.87500000  0.62500000  1.0
  Cl  Cl79  1  0.12500000  0.87500000  0.87500000  1.0
  Cl  Cl80  1  0.37500000  0.12500000  0.12500000  1.0
  Cl  Cl81  1  0.37500000  0.12500000  0.37500000  1.0
  Cl  Cl82  1  0.37500000  0.12500000  0.62500000  1.0
  Cl  Cl83  1  0.37500000  0.12500000  0.87500000  1.0
  Cl  Cl84  1  0.37500000  0.37500000  0.12500000  1.0
  Cl  Cl85  1  0.37500000  0.37500000  0.37500000  1.0
  Cl  Cl86  1  0.37500000  0.37500000  0.62500000  1.0
  Cl  Cl87  1  0.37500000  0.37500000  0.87500000  1.0
  Cl  Cl88  1  0.37500000  0.62500000  0.12500000  1.0
  Cl  Cl89  1  0.37500000  0.62500000  0.37500000  1.0
  Cl  Cl90  1  0.37500000  0.62500000  0.62500000  1.0
  Cl  Cl91  1  0.37500000  0.62500000  0.87500000  1.0
  Cl  Cl92  1  0.37500000  0.87500000  0.12500000  1.0
  Cl  Cl93  1  0.37500000  0.87500000  0.37500000  1.0
  Cl  Cl94  1  0.37500000  0.87500000  0.62500000  1.0
  Cl  Cl95  1  0.37500000  0.87500000  0.87500000  1.0
  Cl  Cl96  1  0.62500000  0.12500000  0.12500000  1.0
  Cl  Cl97  1  0.62500000  0.12500000  0.37500000  1.0
  Cl  Cl98  1  0.62500000  0.12500000  0.62500000  1.0
  Cl  Cl99  1  0.62500000  0.12500000  0.87500000  1.0
  Cl  Cl100  1  0.62500000  0.37500000  0.12500000  1.0
  Cl  Cl101  1  0.62500000  0.37500000  0.37500000  1.0
  Cl  Cl102  1  0.62500000  0.37500000  0.62500000  1.0
  Cl  Cl103  1  0.62500000  0.37500000  0.87500000  1.0
  Cl  Cl104  1  0.62500000  0.62500000  0.12500000  1.0
  Cl  Cl105  1  0.62500000  0.62500000  0.37500000  1.0
  Cl  Cl106  1  0.62500000  0.62500000  0.62500000  1.0
  Cl  Cl107  1  0.62500000  0.62500000  0.87500000  1.0
  Cl  Cl108  1  0.62500000  0.87500000  0.12500000  1.0
  Cl  Cl109  1  0.62500000  0.87500000  0.37500000  1.0
  Cl  Cl110  1  0.62500000  0.87500000  0.62500000  1.0
  Cl  Cl111  1  0.62500000  0.87500000  0.87500000  1.0
  Cl  Cl112  1  0.87500000  0.12500000  0.12500000  1.0
  Cl  Cl113  1  0.87500000  0.12500000  0.37500000  1.0
  Cl  Cl114  1  0.87500000  0.12500000  0.62500000  1.0
  Cl  Cl115  1  0.87500000  0.12500000  0.87500000  1.0
  Cl  Cl116  1  0.87500000  0.37500000  0.12500000  1.0
  Cl  Cl117  1  0.87500000  0.37500000  0.37500000  1.0
  Cl  Cl118  1  0.87500000  0.37500000  0.62500000  1.0
  Cl  Cl119  1  0.87500000  0.37500000  0.87500000  1.0
  Cl  Cl120  1  0.87500000  0.62500000  0.12500000  1.0
  Cl  Cl121  1  0.87500000  0.62500000  0.37500000  1.0
  Cl  Cl122  1  0.87500000  0.62500000  0.62500000  1.0
  Cl  Cl123  1  0.87500000  0.62500000  0.87500000  1.0
  Cl  Cl124  1  0.87500000  0.87500000  0.12500000  1.0
  Cl  Cl125  1  0.87500000  0.87500000  0.37500000  1.0
  Cl  Cl126  1  0.87500000  0.87500000  0.62500000  1.0
  Cl  Cl127  1  0.87500000  0.87500000  0.87500000  1.0
