# generated using pymatgen
data_Li17Sc5Cl32
_symmetry_space_group_name_H-M   'P 1'
_cell_length_a   20.80740000
_cell_length_b   20.80740000
_cell_length_c   20.80740000
_cell_angle_alpha   90.00000000
_cell_angle_beta   90.00000000
_cell_angle_gamma   90.00000000
_symmetry_Int_Tables_number   1
_chemical_formula_structural   Li17Sc5Cl32
_chemical_formula_sum   'Li136 Sc40 Cl256'
_cell_volume   9008.52002543
_cell_formula_units_Z   8
loop_
 _symmetry_equiv_pos_site_id
 _symmetry_equiv_pos_as_xyz
  1  'x, y, z'
loop_
 _atom_site_type_symbol
 _atom_site_label
 _atom_site_symmetry_multiplicity
 _atom_site_fract_x
 _atom_site_fract_y
 _atom_site_fract_z
 _atom_site_occupancy
  Li  Li0  1  0.93750000  0.43750000  0.93750000  1
  Li  Li1  1  0.93750000  0.93750000  0.93750000  1
  Li  Li2  1  0.68750000  0.18750000  0.93750000  1
  Li  Li3  1  0.56250000  0.56250000  0.56250000  1
  Li  Li4  1  0.31250000  0.81250000  0.06250000  1
  Li  Li5  1  0.81250000  0.31250000  0.06250000  1
  Li  Li6  1  0.56250000  0.31250000  0.31250000  1
  Li  Li7  1  0.62500000  0.12500000  0.00000000  1
  Li  Li8  1  0.37500000  0.37500000  0.50000000  1
  Li  Li9  1  0.87500000  0.37500000  0.00000000  1
  Li  Li10  1  0.37500000  0.62500000  0.75000000  1
  Li  Li11  1  0.87500000  0.62500000  0.25000000  1
  Li  Li12  1  0.12500000  0.87500000  0.75000000  1
  Li  Li13  1  0.62500000  0.00000000  0.12500000  1
  Li  Li14  1  0.62500000  0.00000000  0.62500000  1
  Li  Li15  1  0.37500000  0.75000000  0.12500000  1
  Li  Li16  1  0.87500000  0.25000000  0.12500000  1
  Li  Li17  1  0.87500000  0.25000000  0.62500000  1
  Li  Li18  1  0.87500000  0.75000000  0.62500000  1
  Li  Li19  1  0.37500000  0.50000000  0.87500000  1
  Li  Li20  1  0.12500000  0.75000000  0.87500000  1
  Li  Li21  1  0.62500000  0.25000000  0.37500000  1
  Li  Li22  1  0.00000000  0.12500000  0.62500000  1
  Li  Li23  1  0.25000000  0.87500000  0.62500000  1
  Li  Li24  1  0.25000000  0.12500000  0.37500000  1
  Li  Li25  1  0.25000000  0.62500000  0.37500000  1
  Li  Li26  1  0.75000000  0.12500000  0.87500000  1
  Li  Li27  1  0.75000000  0.62500000  0.37500000  1
  Li  Li28  1  0.75000000  0.62500000  0.87500000  1
  Li  Li29  1  0.00000000  0.37500000  0.87500000  1
  Li  Li30  1  0.50000000  0.37500000  0.87500000  1
  Li  Li31  1  0.50000000  0.87500000  0.37500000  1
  Li  Li32  1  0.00000000  0.50000000  0.50000000  1
  Li  Li33  1  0.50000000  0.50000000  0.50000000  1
  Li  Li34  1  0.75000000  0.25000000  0.50000000  1
  Li  Li35  1  0.75000000  0.75000000  0.50000000  1
  Li  Li36  1  0.75000000  0.50000000  0.75000000  1
  Li  Li37  1  0.00000000  0.25000000  0.75000000  1
  Li  Li38  1  0.18750000  0.81250000  0.56250000  1
  Li  Li39  1  0.31250000  0.93750000  0.31250000  1
  Li  Li40  1  0.56250000  0.43750000  0.31250000  1
  Li  Li41  1  0.06250000  0.18750000  0.56250000  1
  Li  Li42  1  0.56250000  0.68750000  0.56250000  1
  Li  Li43  1  0.18750000  0.56250000  0.56250000  1
  Li  Li44  1  0.06250000  0.43750000  0.18750000  1
  Li  Li45  1  0.81250000  0.93750000  0.43750000  1
  Li  Li46  1  0.43750000  0.56250000  0.68750000  1
  Li  Li47  1  0.93750000  0.31250000  0.43750000  1
  Li  Li48  1  0.25000000  0.25000000  0.25000000  1
  Li  Li49  1  0.25000000  0.75000000  0.25000000  1
  Li  Li50  1  0.75000000  0.25000000  0.25000000  1
  Li  Li51  1  0.75000000  0.75000000  0.25000000  1
  Li  Li52  1  0.75000000  0.75000000  0.75000000  1
  Li  Li53  1  0.00000000  0.00000000  0.25000000  1
  Li  Li54  1  0.00000000  0.00000000  0.75000000  1
  Li  Li55  1  0.00000000  0.50000000  0.75000000  1
  Li  Li56  1  0.50000000  0.00000000  0.25000000  1
  Li  Li57  1  0.50000000  0.50000000  0.25000000  1
  Li  Li58  1  0.50000000  0.50000000  0.75000000  1
  Li  Li59  1  0.00000000  0.25000000  0.50000000  1
  Li  Li60  1  0.00000000  0.75000000  0.00000000  1
  Li  Li61  1  0.00000000  0.75000000  0.50000000  1
  Li  Li62  1  0.50000000  0.25000000  0.00000000  1
  Li  Li63  1  0.50000000  0.25000000  0.50000000  1
  Li  Li64  1  0.50000000  0.75000000  0.00000000  1
  Li  Li65  1  0.50000000  0.75000000  0.50000000  1
  Li  Li66  1  0.25000000  0.00000000  0.00000000  1
  Li  Li67  1  0.25000000  0.00000000  0.50000000  1
  Li  Li68  1  0.25000000  0.50000000  0.00000000  1
  Li  Li69  1  0.75000000  0.00000000  0.00000000  1
  Li  Li70  1  0.75000000  0.50000000  0.00000000  1
  Li  Li71  1  0.75000000  0.50000000  0.50000000  1
  Li  Li72  1  0.25000000  0.12500000  0.62500000  1
  Li  Li73  1  0.25000000  0.62500000  0.12500000  1
  Li  Li74  1  0.75000000  0.12500000  0.12500000  1
  Li  Li75  1  0.75000000  0.12500000  0.62500000  1
  Li  Li76  1  0.00000000  0.37500000  0.62500000  1
  Li  Li77  1  0.00000000  0.87500000  0.12500000  1
  Li  Li78  1  0.00000000  0.87500000  0.62500000  1
  Li  Li79  1  0.50000000  0.37500000  0.62500000  1
  Li  Li80  1  0.00000000  0.12500000  0.37500000  1
  Li  Li81  1  0.50000000  0.62500000  0.37500000  1
  Li  Li82  1  0.25000000  0.37500000  0.37500000  1
  Li  Li83  1  0.25000000  0.37500000  0.87500000  1
  Li  Li84  1  0.25000000  0.87500000  0.37500000  1
  Li  Li85  1  0.25000000  0.87500000  0.87500000  1
  Li  Li86  1  0.75000000  0.37500000  0.87500000  1
  Li  Li87  1  0.75000000  0.87500000  0.37500000  1
  Li  Li88  1  0.75000000  0.87500000  0.87500000  1
  Li  Li89  1  0.12500000  0.25000000  0.12500000  1
  Li  Li90  1  0.12500000  0.75000000  0.12500000  1
  Li  Li91  1  0.12500000  0.75000000  0.62500000  1
  Li  Li92  1  0.62500000  0.25000000  0.12500000  1
  Li  Li93  1  0.62500000  0.25000000  0.62500000  1
  Li  Li94  1  0.62500000  0.75000000  0.12500000  1
  Li  Li95  1  0.37500000  0.00000000  0.12500000  1
  Li  Li96  1  0.37500000  0.00000000  0.62500000  1
  Li  Li97  1  0.37500000  0.50000000  0.12500000  1
  Li  Li98  1  0.37500000  0.50000000  0.62500000  1
  Li  Li99  1  0.87500000  0.50000000  0.12500000  1
  Li  Li100  1  0.37500000  0.25000000  0.37500000  1
  Li  Li101  1  0.37500000  0.25000000  0.87500000  1
  Li  Li102  1  0.37500000  0.75000000  0.37500000  1
  Li  Li103  1  0.87500000  0.25000000  0.37500000  1
  Li  Li104  1  0.87500000  0.75000000  0.87500000  1
  Li  Li105  1  0.12500000  0.00000000  0.37500000  1
  Li  Li106  1  0.12500000  0.50000000  0.37500000  1
  Li  Li107  1  0.12500000  0.50000000  0.87500000  1
  Li  Li108  1  0.62500000  0.00000000  0.37500000  1
  Li  Li109  1  0.62500000  0.00000000  0.87500000  1
  Li  Li110  1  0.62500000  0.50000000  0.37500000  1
  Li  Li111  1  0.62500000  0.50000000  0.87500000  1
  Li  Li112  1  0.12500000  0.12500000  0.25000000  1
  Li  Li113  1  0.12500000  0.12500000  0.75000000  1
  Li  Li114  1  0.12500000  0.62500000  0.25000000  1
  Li  Li115  1  0.12500000  0.62500000  0.75000000  1
  Li  Li116  1  0.62500000  0.12500000  0.25000000  1
  Li  Li117  1  0.62500000  0.12500000  0.75000000  1
  Li  Li118  1  0.62500000  0.62500000  0.25000000  1
  Li  Li119  1  0.62500000  0.62500000  0.75000000  1
  Li  Li120  1  0.37500000  0.37500000  0.25000000  1
  Li  Li121  1  0.37500000  0.37500000  0.75000000  1
  Li  Li122  1  0.37500000  0.87500000  0.25000000  1
  Li  Li123  1  0.87500000  0.37500000  0.25000000  1
  Li  Li124  1  0.87500000  0.87500000  0.25000000  1
  Li  Li125  1  0.87500000  0.87500000  0.75000000  1
  Li  Li126  1  0.37500000  0.12500000  0.00000000  1
  Li  Li127  1  0.37500000  0.62500000  0.00000000  1
  Li  Li128  1  0.37500000  0.62500000  0.50000000  1
  Li  Li129  1  0.87500000  0.12500000  0.00000000  1
  Li  Li130  1  0.12500000  0.37500000  0.00000000  1
  Li  Li131  1  0.12500000  0.37500000  0.50000000  1
  Li  Li132  1  0.12500000  0.87500000  0.00000000  1
  Li  Li133  1  0.62500000  0.37500000  0.00000000  1
  Li  Li134  1  0.62500000  0.37500000  0.50000000  1
  Li  Li135  1  0.62500000  0.87500000  0.00000000  1
  Sc  Sc136  1  0.25000000  0.25000000  0.75000000  1
  Sc  Sc137  1  0.25000000  0.75000000  0.75000000  1
  Sc  Sc138  1  0.75000000  0.25000000  0.75000000  1
  Sc  Sc139  1  0.00000000  0.50000000  0.25000000  1
  Sc  Sc140  1  0.50000000  0.00000000  0.75000000  1
  Sc  Sc141  1  0.00000000  0.25000000  0.00000000  1
  Sc  Sc142  1  0.25000000  0.50000000  0.50000000  1
  Sc  Sc143  1  0.75000000  0.00000000  0.50000000  1
  Sc  Sc144  1  0.25000000  0.12500000  0.12500000  1
  Sc  Sc145  1  0.25000000  0.62500000  0.62500000  1
  Sc  Sc146  1  0.75000000  0.62500000  0.12500000  1
  Sc  Sc147  1  0.75000000  0.62500000  0.62500000  1
  Sc  Sc148  1  0.00000000  0.37500000  0.12500000  1
  Sc  Sc149  1  0.50000000  0.37500000  0.12500000  1
  Sc  Sc150  1  0.50000000  0.87500000  0.12500000  1
  Sc  Sc151  1  0.50000000  0.87500000  0.62500000  1
  Sc  Sc152  1  0.00000000  0.12500000  0.87500000  1
  Sc  Sc153  1  0.00000000  0.62500000  0.37500000  1
  Sc  Sc154  1  0.00000000  0.62500000  0.87500000  1
  Sc  Sc155  1  0.50000000  0.12500000  0.37500000  1
  Sc  Sc156  1  0.50000000  0.12500000  0.87500000  1
  Sc  Sc157  1  0.50000000  0.62500000  0.87500000  1
  Sc  Sc158  1  0.75000000  0.37500000  0.37500000  1
  Sc  Sc159  1  0.12500000  0.25000000  0.62500000  1
  Sc  Sc160  1  0.62500000  0.75000000  0.62500000  1
  Sc  Sc161  1  0.87500000  0.00000000  0.12500000  1
  Sc  Sc162  1  0.87500000  0.00000000  0.62500000  1
  Sc  Sc163  1  0.87500000  0.50000000  0.62500000  1
  Sc  Sc164  1  0.37500000  0.75000000  0.87500000  1
  Sc  Sc165  1  0.87500000  0.25000000  0.87500000  1
  Sc  Sc166  1  0.87500000  0.75000000  0.37500000  1
  Sc  Sc167  1  0.12500000  0.00000000  0.87500000  1
  Sc  Sc168  1  0.37500000  0.87500000  0.75000000  1
  Sc  Sc169  1  0.87500000  0.37500000  0.75000000  1
  Sc  Sc170  1  0.37500000  0.12500000  0.50000000  1
  Sc  Sc171  1  0.87500000  0.12500000  0.50000000  1
  Sc  Sc172  1  0.87500000  0.62500000  0.00000000  1
  Sc  Sc173  1  0.87500000  0.62500000  0.50000000  1
  Sc  Sc174  1  0.12500000  0.87500000  0.50000000  1
  Sc  Sc175  1  0.62500000  0.87500000  0.50000000  1
  Cl  Cl176  1  0.37500000  0.37500000  0.37500000  1
  Cl  Cl177  1  0.37500000  0.37500000  0.87500000  1
  Cl  Cl178  1  0.37500000  0.87500000  0.37500000  1
  Cl  Cl179  1  0.37500000  0.87500000  0.87500000  1
  Cl  Cl180  1  0.87500000  0.37500000  0.37500000  1
  Cl  Cl181  1  0.87500000  0.37500000  0.87500000  1
  Cl  Cl182  1  0.87500000  0.87500000  0.37500000  1
  Cl  Cl183  1  0.87500000  0.87500000  0.87500000  1
  Cl  Cl184  1  0.12500000  0.12500000  0.37500000  1
  Cl  Cl185  1  0.12500000  0.12500000  0.87500000  1
  Cl  Cl186  1  0.12500000  0.62500000  0.37500000  1
  Cl  Cl187  1  0.12500000  0.62500000  0.87500000  1
  Cl  Cl188  1  0.62500000  0.12500000  0.37500000  1
  Cl  Cl189  1  0.62500000  0.12500000  0.87500000  1
  Cl  Cl190  1  0.62500000  0.62500000  0.37500000  1
  Cl  Cl191  1  0.62500000  0.62500000  0.87500000  1
  Cl  Cl192  1  0.12500000  0.37500000  0.12500000  1
  Cl  Cl193  1  0.12500000  0.37500000  0.62500000  1
  Cl  Cl194  1  0.12500000  0.87500000  0.12500000  1
  Cl  Cl195  1  0.12500000  0.87500000  0.62500000  1
  Cl  Cl196  1  0.62500000  0.37500000  0.12500000  1
  Cl  Cl197  1  0.62500000  0.37500000  0.62500000  1
  Cl  Cl198  1  0.62500000  0.87500000  0.12500000  1
  Cl  Cl199  1  0.62500000  0.87500000  0.62500000  1
  Cl  Cl200  1  0.37500000  0.12500000  0.12500000  1
  Cl  Cl201  1  0.37500000  0.12500000  0.62500000  1
  Cl  Cl202  1  0.37500000  0.62500000  0.12500000  1
  Cl  Cl203  1  0.37500000  0.62500000  0.62500000  1
  Cl  Cl204  1  0.87500000  0.12500000  0.12500000  1
  Cl  Cl205  1  0.87500000  0.12500000  0.62500000  1
  Cl  Cl206  1  0.87500000  0.62500000  0.12500000  1
  Cl  Cl207  1  0.87500000  0.62500000  0.62500000  1
  Cl  Cl208  1  0.37500000  0.25000000  0.25000000  1
  Cl  Cl209  1  0.37500000  0.25000000  0.75000000  1
  Cl  Cl210  1  0.37500000  0.75000000  0.25000000  1
  Cl  Cl211  1  0.37500000  0.75000000  0.75000000  1
  Cl  Cl212  1  0.87500000  0.25000000  0.25000000  1
  Cl  Cl213  1  0.87500000  0.25000000  0.75000000  1
  Cl  Cl214  1  0.87500000  0.75000000  0.25000000  1
  Cl  Cl215  1  0.87500000  0.75000000  0.75000000  1
  Cl  Cl216  1  0.12500000  0.00000000  0.25000000  1
  Cl  Cl217  1  0.12500000  0.00000000  0.75000000  1
  Cl  Cl218  1  0.12500000  0.50000000  0.25000000  1
  Cl  Cl219  1  0.12500000  0.50000000  0.75000000  1
  Cl  Cl220  1  0.62500000  0.00000000  0.25000000  1
  Cl  Cl221  1  0.62500000  0.00000000  0.75000000  1
  Cl  Cl222  1  0.62500000  0.50000000  0.25000000  1
  Cl  Cl223  1  0.62500000  0.50000000  0.75000000  1
  Cl  Cl224  1  0.12500000  0.25000000  0.00000000  1
  Cl  Cl225  1  0.12500000  0.25000000  0.50000000  1
  Cl  Cl226  1  0.12500000  0.75000000  0.00000000  1
  Cl  Cl227  1  0.12500000  0.75000000  0.50000000  1
  Cl  Cl228  1  0.62500000  0.25000000  0.00000000  1
  Cl  Cl229  1  0.62500000  0.25000000  0.50000000  1
  Cl  Cl230  1  0.62500000  0.75000000  0.00000000  1
  Cl  Cl231  1  0.62500000  0.75000000  0.50000000  1
  Cl  Cl232  1  0.37500000  0.00000000  0.00000000  1
  Cl  Cl233  1  0.37500000  0.00000000  0.50000000  1
  Cl  Cl234  1  0.37500000  0.50000000  0.00000000  1
  Cl  Cl235  1  0.37500000  0.50000000  0.50000000  1
  Cl  Cl236  1  0.87500000  0.00000000  0.00000000  1
  Cl  Cl237  1  0.87500000  0.00000000  0.50000000  1
  Cl  Cl238  1  0.87500000  0.50000000  0.00000000  1
  Cl  Cl239  1  0.87500000  0.50000000  0.50000000  1
  Cl  Cl240  1  0.25000000  0.37500000  0.25000000  1
  Cl  Cl241  1  0.25000000  0.37500000  0.75000000  1
  Cl  Cl242  1  0.25000000  0.87500000  0.25000000  1
  Cl  Cl243  1  0.25000000  0.87500000  0.75000000  1
  Cl  Cl244  1  0.75000000  0.37500000  0.25000000  1
  Cl  Cl245  1  0.75000000  0.37500000  0.75000000  1
  Cl  Cl246  1  0.75000000  0.87500000  0.25000000  1
  Cl  Cl247  1  0.75000000  0.87500000  0.75000000  1
  Cl  Cl248  1  0.00000000  0.12500000  0.25000000  1
  Cl  Cl249  1  0.00000000  0.12500000  0.75000000  1
  Cl  Cl250  1  0.00000000  0.62500000  0.25000000  1
  Cl  Cl251  1  0.00000000  0.62500000  0.75000000  1
  Cl  Cl252  1  0.50000000  0.12500000  0.25000000  1
  Cl  Cl253  1  0.50000000  0.12500000  0.75000000  1
  Cl  Cl254  1  0.50000000  0.62500000  0.25000000  1
  Cl  Cl255  1  0.50000000  0.62500000  0.75000000  1
  Cl  Cl256  1  0.00000000  0.37500000  0.00000000  1
  Cl  Cl257  1  0.00000000  0.37500000  0.50000000  1
  Cl  Cl258  1  0.00000000  0.87500000  0.00000000  1
  Cl  Cl259  1  0.00000000  0.87500000  0.50000000  1
  Cl  Cl260  1  0.50000000  0.37500000  0.00000000  1
  Cl  Cl261  1  0.50000000  0.37500000  0.50000000  1
  Cl  Cl262  1  0.50000000  0.87500000  0.00000000  1
  Cl  Cl263  1  0.50000000  0.87500000  0.50000000  1
  Cl  Cl264  1  0.25000000  0.12500000  0.00000000  1
  Cl  Cl265  1  0.25000000  0.12500000  0.50000000  1
  Cl  Cl266  1  0.25000000  0.62500000  0.00000000  1
  Cl  Cl267  1  0.25000000  0.62500000  0.50000000  1
  Cl  Cl268  1  0.75000000  0.12500000  0.00000000  1
  Cl  Cl269  1  0.75000000  0.12500000  0.50000000  1
  Cl  Cl270  1  0.75000000  0.62500000  0.00000000  1
  Cl  Cl271  1  0.75000000  0.62500000  0.50000000  1
  Cl  Cl272  1  0.25000000  0.25000000  0.12500000  1
  Cl  Cl273  1  0.25000000  0.25000000  0.62500000  1
  Cl  Cl274  1  0.25000000  0.75000000  0.12500000  1
  Cl  Cl275  1  0.25000000  0.75000000  0.62500000  1
  Cl  Cl276  1  0.75000000  0.25000000  0.12500000  1
  Cl  Cl277  1  0.75000000  0.25000000  0.62500000  1
  Cl  Cl278  1  0.75000000  0.75000000  0.12500000  1
  Cl  Cl279  1  0.75000000  0.75000000  0.62500000  1
  Cl  Cl280  1  0.00000000  0.00000000  0.12500000  1
  Cl  Cl281  1  0.00000000  0.00000000  0.62500000  1
  Cl  Cl282  1  0.00000000  0.50000000  0.12500000  1
  Cl  Cl283  1  0.00000000  0.50000000  0.62500000  1
  Cl  Cl284  1  0.50000000  0.00000000  0.12500000  1
  Cl  Cl285  1  0.50000000  0.00000000  0.62500000  1
  Cl  Cl286  1  0.50000000  0.50000000  0.12500000  1
  Cl  Cl287  1  0.50000000  0.50000000  0.62500000  1
  Cl  Cl288  1  0.00000000  0.25000000  0.37500000  1
  Cl  Cl289  1  0.00000000  0.25000000  0.87500000  1
  Cl  Cl290  1  0.00000000  0.75000000  0.37500000  1
  Cl  Cl291  1  0.00000000  0.75000000  0.87500000  1
  Cl  Cl292  1  0.50000000  0.25000000  0.37500000  1
  Cl  Cl293  1  0.50000000  0.25000000  0.87500000  1
  Cl  Cl294  1  0.50000000  0.75000000  0.37500000  1
  Cl  Cl295  1  0.50000000  0.75000000  0.87500000  1
  Cl  Cl296  1  0.25000000  0.00000000  0.37500000  1
  Cl  Cl297  1  0.25000000  0.00000000  0.87500000  1
  Cl  Cl298  1  0.25000000  0.50000000  0.37500000  1
  Cl  Cl299  1  0.25000000  0.50000000  0.87500000  1
  Cl  Cl300  1  0.75000000  0.00000000  0.37500000  1
  Cl  Cl301  1  0.75000000  0.00000000  0.87500000  1
  Cl  Cl302  1  0.75000000  0.50000000  0.37500000  1
  Cl  Cl303  1  0.75000000  0.50000000  0.87500000  1
  Cl  Cl304  1  0.25000000  0.25000000  0.37500000  1
  Cl  Cl305  1  0.25000000  0.25000000  0.87500000  1
  Cl  Cl306  1  0.25000000  0.75000000  0.37500000  1
  Cl  Cl307  1  0.25000000  0.75000000  0.87500000  1
  Cl  Cl308  1  0.75000000  0.25000000  0.37500000  1
  Cl  Cl309  1  0.75000000  0.25000000  0.87500000  1
  Cl  Cl310  1  0.75000000  0.75000000  0.37500000  1
  Cl  Cl311  1  0.75000000  0.75000000  0.87500000  1
  Cl  Cl312  1  0.00000000  0.00000000  0.37500000  1
  Cl  Cl313  1  0.00000000  0.00000000  0.87500000  1
  Cl  Cl314  1  0.00000000  0.50000000  0.37500000  1
  Cl  Cl315  1  0.00000000  0.50000000  0.87500000  1
  Cl  Cl316  1  0.50000000  0.00000000  0.37500000  1
  Cl  Cl317  1  0.50000000  0.00000000  0.87500000  1
  Cl  Cl318  1  0.50000000  0.50000000  0.37500000  1
  Cl  Cl319  1  0.50000000  0.50000000  0.87500000  1
  Cl  Cl320  1  0.00000000  0.25000000  0.12500000  1
  Cl  Cl321  1  0.00000000  0.25000000  0.62500000  1
  Cl  Cl322  1  0.00000000  0.75000000  0.12500000  1
  Cl  Cl323  1  0.00000000  0.75000000  0.62500000  1
  Cl  Cl324  1  0.50000000  0.25000000  0.12500000  1
  Cl  Cl325  1  0.50000000  0.25000000  0.62500000  1
  Cl  Cl326  1  0.50000000  0.75000000  0.12500000  1
  Cl  Cl327  1  0.50000000  0.75000000  0.62500000  1
  Cl  Cl328  1  0.25000000  0.00000000  0.12500000  1
  Cl  Cl329  1  0.25000000  0.00000000  0.62500000  1
  Cl  Cl330  1  0.25000000  0.50000000  0.12500000  1
  Cl  Cl331  1  0.25000000  0.50000000  0.62500000  1
  Cl  Cl332  1  0.75000000  0.00000000  0.12500000  1
  Cl  Cl333  1  0.75000000  0.00000000  0.62500000  1
  Cl  Cl334  1  0.75000000  0.50000000  0.12500000  1
  Cl  Cl335  1  0.75000000  0.50000000  0.62500000  1
  Cl  Cl336  1  0.25000000  0.12500000  0.25000000  1
  Cl  Cl337  1  0.25000000  0.12500000  0.75000000  1
  Cl  Cl338  1  0.25000000  0.62500000  0.25000000  1
  Cl  Cl339  1  0.25000000  0.62500000  0.75000000  1
  Cl  Cl340  1  0.75000000  0.12500000  0.25000000  1
  Cl  Cl341  1  0.75000000  0.12500000  0.75000000  1
  Cl  Cl342  1  0.75000000  0.62500000  0.25000000  1
  Cl  Cl343  1  0.75000000  0.62500000  0.75000000  1
  Cl  Cl344  1  0.00000000  0.37500000  0.25000000  1
  Cl  Cl345  1  0.00000000  0.37500000  0.75000000  1
  Cl  Cl346  1  0.00000000  0.87500000  0.25000000  1
  Cl  Cl347  1  0.00000000  0.87500000  0.75000000  1
  Cl  Cl348  1  0.50000000  0.37500000  0.25000000  1
  Cl  Cl349  1  0.50000000  0.37500000  0.75000000  1
  Cl  Cl350  1  0.50000000  0.87500000  0.25000000  1
  Cl  Cl351  1  0.50000000  0.87500000  0.75000000  1
  Cl  Cl352  1  0.00000000  0.12500000  0.00000000  1
  Cl  Cl353  1  0.00000000  0.12500000  0.50000000  1
  Cl  Cl354  1  0.00000000  0.62500000  0.00000000  1
  Cl  Cl355  1  0.00000000  0.62500000  0.50000000  1
  Cl  Cl356  1  0.50000000  0.12500000  0.00000000  1
  Cl  Cl357  1  0.50000000  0.12500000  0.50000000  1
  Cl  Cl358  1  0.50000000  0.62500000  0.00000000  1
  Cl  Cl359  1  0.50000000  0.62500000  0.50000000  1
  Cl  Cl360  1  0.25000000  0.37500000  0.00000000  1
  Cl  Cl361  1  0.25000000  0.37500000  0.50000000  1
  Cl  Cl362  1  0.25000000  0.87500000  0.00000000  1
  Cl  Cl363  1  0.25000000  0.87500000  0.50000000  1
  Cl  Cl364  1  0.75000000  0.37500000  0.00000000  1
  Cl  Cl365  1  0.75000000  0.37500000  0.50000000  1
  Cl  Cl366  1  0.75000000  0.87500000  1.00000000  1
  Cl  Cl367  1  0.75000000  0.87500000  0.50000000  1
  Cl  Cl368  1  0.12500000  0.25000000  0.25000000  1
  Cl  Cl369  1  0.12500000  0.25000000  0.75000000  1
  Cl  Cl370  1  0.12500000  0.75000000  0.25000000  1
  Cl  Cl371  1  0.12500000  0.75000000  0.75000000  1
  Cl  Cl372  1  0.62500000  0.25000000  0.25000000  1
  Cl  Cl373  1  0.62500000  0.25000000  0.75000000  1
  Cl  Cl374  1  0.62500000  0.75000000  0.25000000  1
  Cl  Cl375  1  0.62500000  0.75000000  0.75000000  1
  Cl  Cl376  1  0.37500000  0.00000000  0.25000000  1
  Cl  Cl377  1  0.37500000  0.00000000  0.75000000  1
  Cl  Cl378  1  0.37500000  0.50000000  0.25000000  1
  Cl  Cl379  1  0.37500000  0.50000000  0.75000000  1
  Cl  Cl380  1  0.87500000  0.00000000  0.25000000  1
  Cl  Cl381  1  0.87500000  0.00000000  0.75000000  1
  Cl  Cl382  1  0.87500000  0.50000000  0.25000000  1
  Cl  Cl383  1  0.87500000  0.50000000  0.75000000  1
  Cl  Cl384  1  0.37500000  0.25000000  0.00000000  1
  Cl  Cl385  1  0.37500000  0.25000000  0.50000000  1
  Cl  Cl386  1  0.37500000  0.75000000  0.00000000  1
  Cl  Cl387  1  0.37500000  0.75000000  0.50000000  1
  Cl  Cl388  1  0.87500000  0.25000000  0.00000000  1
  Cl  Cl389  1  0.87500000  0.25000000  0.50000000  1
  Cl  Cl390  1  0.87500000  0.75000000  1.00000000  1
  Cl  Cl391  1  0.87500000  0.75000000  0.50000000  1
  Cl  Cl392  1  0.12500000  0.00000000  0.00000000  1
  Cl  Cl393  1  0.12500000  0.00000000  0.50000000  1
  Cl  Cl394  1  0.12500000  0.50000000  0.00000000  1
  Cl  Cl395  1  0.12500000  0.50000000  0.50000000  1
  Cl  Cl396  1  0.62500000  0.00000000  0.00000000  1
  Cl  Cl397  1  0.62500000  0.00000000  0.50000000  1
  Cl  Cl398  1  0.62500000  0.50000000  0.00000000  1
  Cl  Cl399  1  0.62500000  0.50000000  0.50000000  1
  Cl  Cl400  1  0.12500000  0.12500000  0.12500000  1
  Cl  Cl401  1  0.12500000  0.12500000  0.62500000  1
  Cl  Cl402  1  0.12500000  0.62500000  0.12500000  1
  Cl  Cl403  1  0.12500000  0.62500000  0.62500000  1
  Cl  Cl404  1  0.62500000  0.12500000  0.12500000  1
  Cl  Cl405  1  0.62500000  0.12500000  0.62500000  1
  Cl  Cl406  1  0.62500000  0.62500000  0.12500000  1
  Cl  Cl407  1  0.62500000  0.62500000  0.62500000  1
  Cl  Cl408  1  0.37500000  0.37500000  0.12500000  1
  Cl  Cl409  1  0.37500000  0.37500000  0.62500000  1
  Cl  Cl410  1  0.37500000  0.87500000  0.12500000  1
  Cl  Cl411  1  0.37500000  0.87500000  0.62500000  1
  Cl  Cl412  1  0.87500000  0.37500000  0.12500000  1
  Cl  Cl413  1  0.87500000  0.37500000  0.62500000  1
  Cl  Cl414  1  0.87500000  0.87500000  0.12500000  1
  Cl  Cl415  1  0.87500000  0.87500000  0.62500000  1
  Cl  Cl416  1  0.37500000  0.12500000  0.37500000  1
  Cl  Cl417  1  0.37500000  0.12500000  0.87500000  1
  Cl  Cl418  1  0.37500000  0.62500000  0.37500000  1
  Cl  Cl419  1  0.37500000  0.62500000  0.87500000  1
  Cl  Cl420  1  0.87500000  0.12500000  0.37500000  1
  Cl  Cl421  1  0.87500000  0.12500000  0.87500000  1
  Cl  Cl422  1  0.87500000  0.62500000  0.37500000  1
  Cl  Cl423  1  0.87500000  0.62500000  0.87500000  1
  Cl  Cl424  1  0.12500000  0.37500000  0.37500000  1
  Cl  Cl425  1  0.12500000  0.37500000  0.87500000  1
  Cl  Cl426  1  0.12500000  0.87500000  0.37500000  1
  Cl  Cl427  1  0.12500000  0.87500000  0.87500000  1
  Cl  Cl428  1  0.62500000  0.37500000  0.37500000  1
  Cl  Cl429  1  0.62500000  0.37500000  0.87500000  1
  Cl  Cl430  1  0.62500000  0.87500000  0.37500000  1
  Cl  Cl431  1  0.62500000  0.87500000  0.87500000  1
