# generated using pymatgen
data_Li17Sc5Cl32
_symmetry_space_group_name_H-M   'P 1'
_cell_length_a   10.41846431
_cell_length_b   10.90502934
_cell_length_c   10.52575933
_cell_angle_alpha   90.00000000
_cell_angle_beta   90.00000000
_cell_angle_gamma   90.00000000
_symmetry_Int_Tables_number   1
_chemical_formula_structural   Li17Sc5Cl32
_chemical_formula_sum   'Li17 Sc5 Cl32'
_cell_volume   1195.87003158
_cell_formula_units_Z   1
loop_
 _symmetry_equiv_pos_site_id
 _symmetry_equiv_pos_as_xyz
  1  'x, y, z'
loop_
 _atom_site_type_symbol
 _atom_site_label
 _atom_site_symmetry_multiplicity
 _atom_site_fract_x
 _atom_site_fract_y
 _atom_site_fract_z
 _atom_site_occupancy
  Li  Li0  1  5.78424000  4.50236000  9.33573000  1
  Li  Li1  1  0.47112800  5.05674000  4.37861000  1
  Li  Li2  1  2.03232000  9.10191000  7.72336000  1
  Li  Li3  1  6.73559000  2.95011000  6.46817000  1
  Li  Li4  1  7.92289000  0.98588900  9.49934000  1
  Li  Li5  1  1.00429000  1.92095000  2.95771000  1
  Li  Li6  1  9.68142000  8.60837000  6.22830000  1
  Li  Li7  1  5.10470000  7.72085000  8.90289000  1
  Li  Li8  1  1.26920000  7.87579000  0.71618600  1
  Li  Li9  1  3.82905000  2.59109000  4.12012000  1
  Li  Li10  1  8.74733000  4.14860000  1.59684000  1
  Li  Li11  1  5.93057000  4.76118000  2.93307000  1
  Li  Li12  1  4.60851000  7.57784000  2.24399000  1
  Li  Li13  1  7.28085000  7.82767000  4.24587000  1
  Li  Li14  1  5.56836000  -0.23169300  6.45986000  1
  Li  Li15  1  7.43091000  8.50248000  0.50485400  1
  Li  Li16  1  0.33921000  0.49939100  0.26318500  1
  Sc  Sc17  1  2.32643000  4.48499000  0.47382900  1
  Sc  Sc18  1  9.11833000  5.57349000  8.20841000  1
  Sc  Sc19  1  0.47514300  1.90431000  6.97830000  1
  Sc  Sc20  1  4.15669000  0.31268400  10.27940000  1
  Sc  Sc21  1  7.30135000  0.77398700  3.18080000  1
  Cl  Cl22  1  2.10816000  1.95836000  1.05925000  1
  Cl  Cl23  1  0.17498400  4.44107000  6.03215000  1
  Cl  Cl24  1  6.14154000  0.36758800  8.18215000  1
  Cl  Cl25  1  7.63059000  7.69996000  9.25671000  1
  Cl  Cl26  1  1.98615000  9.70119000  0.17120100  1
  Cl  Cl27  1  0.19716600  6.10467000  10.48410000  1
  Cl  Cl28  1  5.71200000  1.70899000  5.24334000  1
  Cl  Cl29  1  7.79461000  4.58870000  10.35950000  1
  Cl  Cl30  1  8.75047000  6.92761000  5.89319000  1
  Cl  Cl31  1  6.09078000  6.67246000  3.26167000  1
  Cl  Cl32  1  0.70600700  10.16560000  6.39868000  1
  Cl  Cl33  1  9.86581000  0.64542500  9.17772000  1
  Cl  Cl34  1  4.00881000  4.18941000  2.73309000  1
  Cl  Cl35  1  2.02416000  2.18003000  4.80951000  1
  Cl  Cl36  1  3.90158000  9.19768000  8.28228000  1
  Cl  Cl37  1  4.77265000  0.97970600  2.28038000  1
  Cl  Cl38  1  7.46257000  3.42201000  3.04225000  1
  Cl  Cl39  1  0.99104700  3.82917000  8.83471000  1
  Cl  Cl40  1  0.47321800  4.27718000  2.48526000  1
  Cl  Cl41  1  6.78831000  0.48440900  0.55144200  1
  Cl  Cl42  1  4.33995000  5.86637000  9.78288000  1
  Cl  Cl43  1  9.58101000  1.36358000  1.84388000  1
  Cl  Cl44  1  6.57542000  4.87789000  7.44439000  1
  Cl  Cl45  1  6.63135000  9.84147000  4.86166000  1
  Cl  Cl46  1  9.05126000  1.32320000  5.12110000  1
  Cl  Cl47  1  5.11082000  8.80967000  0.61007500  1
  Cl  Cl48  1  4.52113000  2.98305000  10.11630000  1
  Cl  Cl49  1  0.32887200  7.57561000  7.84180000  1
  Cl  Cl50  1  8.54113000  2.91939000  7.80242000  1
  Cl  Cl51  1  2.52528000  6.80268000  1.74387000  1
  Cl  Cl52  1  8.09759000  9.23192000  2.50586000  1
  Cl  Cl53  1  2.57874000  1.15359000  8.27794000  1
