# generated using pymatgen
data_Li17Sc5Cl32
_symmetry_space_group_name_H-M   'P 1'
_cell_length_a   10.28029522
_cell_length_b   10.31331311
_cell_length_c   10.28719629
_cell_angle_alpha   90.16406533
_cell_angle_beta   90.18151856
_cell_angle_gamma   90.05878367
_symmetry_Int_Tables_number   1
_chemical_formula_structural   Li17Sc5Cl32
_chemical_formula_sum   'Li17 Sc5 Cl32'
_cell_volume   1090.67817824
_cell_formula_units_Z   1
loop_
 _symmetry_equiv_pos_site_id
 _symmetry_equiv_pos_as_xyz
  1  'x, y, z'
loop_
 _atom_site_type_symbol
 _atom_site_label
 _atom_site_symmetry_multiplicity
 _atom_site_fract_x
 _atom_site_fract_y
 _atom_site_fract_z
 _atom_site_occupancy
  Li  Li0  1  0.37253879  0.37228487  0.88310626  1.0
  Li  Li1  1  0.50592971  0.75054488  0.25136824  1.0
  Li  Li2  1  0.26062488  0.73934239  0.51674214  1.0
  Li  Li3  1  0.75077576  0.49493955  0.25076930  1.0
  Li  Li4  1  0.50586284  0.01509470  0.50581364  1.0
  Li  Li5  1  0.77239696  0.77191168  0.00597408  1.0
  Li  Li6  1  0.50477615  0.47266944  0.50524832  1.0
  Li  Li7  1  0.49407832  0.75042922  0.74949172  1.0
  Li  Li8  1  0.23788427  0.76093076  0.98333150  1.0
  Li  Li9  1  0.26077903  0.24997994  0.49420697  1.0
  Li  Li10  1  0.76089328  0.25994676  0.01651406  1.0
  Li  Li11  1  0.50598245  0.25010056  0.26141320  1.0
  Li  Li12  1  -0.00247588  0.75547548  0.24280229  1.0
  Li  Li13  1  0.74953864  0.75047460  0.50453645  1.0
  Li  Li14  1  0.25044572  0.98336792  0.75099237  1.0
  Li  Li15  1  0.75879755  0.03472165  0.25030736  1.0
  Li  Li16  1  0.00558890  0.51637876  0.00554049  1.0
  Sc  Sc17  1  0.24966594  0.49461636  0.25070953  1.0
  Sc  Sc18  1  0.75013616  0.50566163  0.74986490  1.0
  Sc  Sc19  1  0.00528128  0.24993181  0.76092032  1.0
  Sc  Sc20  1  0.49502708  0.00544559  0.99503999  1.0
  Sc  Sc21  1  0.99479738  0.99478144  0.49455974  1.0
  Cl  Cl22  1  0.25953889  0.26256055  0.25179248  1.0
  Cl  Cl23  1  0.74417252  0.51014856  0.51165127  1.0
  Cl  Cl24  1  0.49937127  -0.00059173  0.75709524  1.0
  Cl  Cl25  1  0.00245926  0.74697742  0.01080089  1.0
  Cl  Cl26  1  0.26133781  -0.00313108  0.99508954  1.0
  Cl  Cl27  1  0.74571292  0.74178401  0.75540652  1.0
  Cl  Cl28  1  0.49247588  0.24180420  0.49558006  1.0
  Cl  Cl29  1  0.01137468  0.50689826  0.24843068  1.0
  Cl  Cl30  1  0.50247588  0.76635038  0.50122149  1.0
  Cl  Cl31  1  0.75558440  0.50589884  0.99179089  1.0
  Cl  Cl32  1  -0.00096149  0.01020975  0.74490305  1.0
  Cl  Cl33  1  0.00060684  0.26264525  0.99217955  1.0
  Cl  Cl34  1  0.49600329  0.50475908  0.25906501  1.0
  Cl  Cl35  1  0.23934923  -0.00277681  0.50714922  1.0
  Cl  Cl36  1  0.26207147  0.75208230  0.75009358  1.0
  Cl  Cl37  1  0.50917116  0.00047347  0.24260961  1.0
  Cl  Cl38  1  0.74346366  0.26617620  0.24498052  1.0
  Cl  Cl39  1  0.99391786  0.49340650  0.74884605  1.0
  Cl  Cl40  1  0.25949021  0.49899552  0.49207507  1.0
  Cl  Cl41  1  0.73932931  0.00702035  0.00688537  1.0
  Cl  Cl42  1  0.25069006  0.51430444  0.00944945  1.0
  Cl  Cl43  1  0.99426522  -0.00028474  0.26240191  1.0
  Cl  Cl44  1  0.51005544  0.50075632  0.74649192  1.0
  Cl  Cl45  1  0.75638246  0.99368444  0.49681809  1.0
  Cl  Cl46  1  0.00483372  0.23950832  0.51474139  1.0
  Cl  Cl47  1  0.50615837  0.76384938  0.00366987  1.0
  Cl  Cl48  1  0.50943908  0.24466809  0.00877485  1.0
  Cl  Cl49  1  0.00100810  0.75948070  0.49995805  1.0
  Cl  Cl50  1  0.76041245  0.26294804  0.75662752  1.0
  Cl  Cl51  1  0.25719954  0.73844488  0.25732962  1.0
  Cl  Cl52  1  0.74981189  0.73684274  0.25124659  1.0
  Cl  Cl53  1  0.24347336  0.24507636  0.74459180  1.0
