# generated using pymatgen
data_Li17Sc5Cl32
_symmetry_space_group_name_H-M   'P 1'
_cell_length_a   10.30317740
_cell_length_b   10.21756063
_cell_length_c   10.39788452
_cell_angle_alpha   90.13668792
_cell_angle_beta   90.49625292
_cell_angle_gamma   90.01999877
_symmetry_Int_Tables_number   1
_chemical_formula_structural   Li17Sc5Cl32
_chemical_formula_sum   'Li17 Sc5 Cl32'
_cell_volume   1094.57578186
_cell_formula_units_Z   1
loop_
 _symmetry_equiv_pos_site_id
 _symmetry_equiv_pos_as_xyz
  1  'x, y, z'
loop_
 _atom_site_type_symbol
 _atom_site_label
 _atom_site_symmetry_multiplicity
 _atom_site_fract_x
 _atom_site_fract_y
 _atom_site_fract_z
 _atom_site_occupancy
  Li  Li0  1  0.38280827  0.37171143  0.88297743  1.0
  Li  Li1  1  0.25020677  0.76030392  0.50550854  1.0
  Li  Li2  1  0.00600156  0.76056553  0.75045541  1.0
  Li  Li3  1  0.74985909  0.49455720  0.25032813  1.0
  Li  Li4  1  0.49379716  0.00594476  0.50586597  1.0
  Li  Li5  1  0.11637956  0.91598591  0.11607414  1.0
  Li  Li6  1  0.49456029  0.49416496  0.49492947  1.0
  Li  Li7  1  0.49372030  0.75041976  0.74883072  1.0
  Li  Li8  1  0.25438479  0.73145276  0.96875163  1.0
  Li  Li9  1  0.25539532  0.24116261  0.49384497  1.0
  Li  Li10  1  0.76102002  0.25042732  0.00521681  1.0
  Li  Li11  1  0.49424984  0.26027688  0.26120717  1.0
  Li  Li12  1  0.99396748  0.72817203  0.28351878  1.0
  Li  Li13  1  0.73906444  0.75040517  0.50543724  1.0
  Li  Li14  1  0.25053714  0.99438590  0.73917881  1.0
  Li  Li15  1  -0.00506694  0.50570268  0.00556949  1.0
  Li  Li16  1  0.01527586  0.99911450  0.50664055  1.0
  Sc  Sc17  1  0.24955100  0.49486447  0.25036176  1.0
  Sc  Sc18  1  0.74943811  0.50486882  0.74971433  1.0
  Sc  Sc19  1  0.00536767  0.24031605  0.74997232  1.0
  Sc  Sc20  1  0.50381344  0.99371377  0.98851256  1.0
  Sc  Sc21  1  0.74989635  -0.00399900  0.25609455  1.0
  Cl  Cl22  1  0.25088524  0.26074159  0.25026847  1.0
  Cl  Cl23  1  0.74082746  0.50624659  0.51032421  1.0
  Cl  Cl24  1  0.50210555  0.00074815  0.75618299  1.0
  Cl  Cl25  1  0.01832397  0.75036154  -0.00651899  1.0
  Cl  Cl26  1  0.26669770  0.00739089  0.98651981  1.0
  Cl  Cl27  1  0.75611232  0.74159694  0.74986673  1.0
  Cl  Cl28  1  0.48814865  0.24664800  0.48889135  1.0
  Cl  Cl29  1  0.00238366  0.49825361  0.24317952  1.0
  Cl  Cl30  1  0.49800478  0.75504425  0.51323443  1.0
  Cl  Cl31  1  0.75447368  0.49588963  0.99020008  1.0
  Cl  Cl32  1  0.00360044  0.00403473  0.75105990  1.0
  Cl  Cl33  1  0.99697335  0.25452679  0.98464756  1.0
  Cl  Cl34  1  0.49195890  0.50134626  0.25291759  1.0
  Cl  Cl35  1  0.25345122  0.99889440  0.50583519  1.0
  Cl  Cl36  1  0.24753919  0.75442535  0.74359932  1.0
  Cl  Cl37  1  0.50658385  -0.00512130  0.23547588  1.0
  Cl  Cl38  1  0.74317266  0.24101686  0.24405837  1.0
  Cl  Cl39  1  0.99294720  0.49433248  0.75146668  1.0
  Cl  Cl40  1  0.25137749  0.50625622  0.48434280  1.0
  Cl  Cl41  1  0.74614321  -0.00333275  0.01206386  1.0
  Cl  Cl42  1  0.24506899  0.50023086  0.00995154  1.0
  Cl  Cl43  1  0.98621025  0.00295292  0.26695337  1.0
  Cl  Cl44  1  0.51030442  0.50205939  0.74531472  1.0
  Cl  Cl45  1  0.73713764  0.99721557  0.48765524  1.0
  Cl  Cl46  1  0.00664199  0.24023174  0.51743637  1.0
  Cl  Cl47  1  0.49261945  0.75817331  0.98837525  1.0
  Cl  Cl48  1  0.51492500  0.23789013  0.00798910  1.0
  Cl  Cl49  1  0.99679765  0.76269571  0.51075171  1.0
  Cl  Cl50  1  0.76036735  0.25947983  0.75087131  1.0
  Cl  Cl51  1  0.23302361  0.74453782  0.24632562  1.0
  Cl  Cl52  1  0.75678750  0.75268794  0.25684759  1.0
  Cl  Cl53  1  0.24417811  0.24902709  0.74492167  1.0
