# generated using pymatgen
data_Li17Sc5Cl32
_symmetry_space_group_name_H-M   'P 1'
_cell_length_a   10.28352110
_cell_length_b   10.31123015
_cell_length_c   10.37063876
_cell_angle_alpha   90.63380643
_cell_angle_beta   90.15059676
_cell_angle_gamma   90.14074524
_symmetry_Int_Tables_number   1
_chemical_formula_structural   Li17Sc5Cl32
_chemical_formula_sum   'Li17 Sc5 Cl32'
_cell_volume   1099.58401197
_cell_formula_units_Z   1
loop_
 _symmetry_equiv_pos_site_id
 _symmetry_equiv_pos_as_xyz
  1  'x, y, z'
loop_
 _atom_site_type_symbol
 _atom_site_label
 _atom_site_symmetry_multiplicity
 _atom_site_fract_x
 _atom_site_fract_y
 _atom_site_fract_z
 _atom_site_occupancy
  Li  Li0  1  0.38280294  0.37195815  0.88266527  1.0
  Li  Li1  1  0.76046447  0.75015219  0.01655548  1.0
  Li  Li2  1  0.26053064  0.74937454  0.50590306  1.0
  Li  Li3  1  0.75000978  0.49400981  0.25048534  1.0
  Li  Li4  1  0.50574984  0.00583395  0.49438398  1.0
  Li  Li5  1  0.08343781  0.87185662  0.87175535  1.0
  Li  Li6  1  0.49458579  0.49345961  0.49467764  1.0
  Li  Li7  1  0.49413214  0.76067861  0.74981830  1.0
  Li  Li8  1  0.27161011  0.73923818  0.01664975  1.0
  Li  Li9  1  0.26102187  0.25032534  0.48353725  1.0
  Li  Li10  1  0.75042108  0.24949986  0.01651852  1.0
  Li  Li11  1  0.50533606  0.25016564  0.26152658  1.0
  Li  Li12  1  0.99464011  0.74929743  0.24999364  1.0
  Li  Li13  1  0.73827282  0.74989978  0.48340233  1.0
  Li  Li14  1  0.28285716  0.00512820  0.73923788  1.0
  Li  Li15  1  0.74963917  0.01709557  0.24977757  1.0
  Li  Li16  1  0.00512457  0.50420689  0.00577839  1.0
  Sc  Sc17  1  0.24984048  0.49405166  0.25070508  1.0
  Sc  Sc18  1  0.74782895  0.50620963  0.74506001  1.0
  Sc  Sc19  1  0.00374194  0.25683662  0.75181789  1.0
  Sc  Sc20  1  0.49495508  0.99473717  0.00569451  1.0
  Sc  Sc21  1  0.99424706  0.99472093  0.48314429  1.0
  Cl  Cl22  1  0.25117579  0.26057180  0.24996419  1.0
  Cl  Cl23  1  0.74135658  0.51042621  0.50972328  1.0
  Cl  Cl24  1  0.50840764  0.00087803  0.76500186  1.0
  Cl  Cl25  1  0.99863331  0.73672825  0.01311650  1.0
  Cl  Cl26  1  0.25492611  0.98900300  0.99018140  1.0
  Cl  Cl27  1  0.75030678  0.73982365  0.75857558  1.0
  Cl  Cl28  1  0.48817098  0.24041436  0.49438350  1.0
  Cl  Cl29  1  0.00880701  0.49919399  0.24367248  1.0
  Cl  Cl30  1  0.49695288  0.76335806  0.51601433  1.0
  Cl  Cl31  1  0.75481543  0.49914245  0.98770374  1.0
  Cl  Cl32  1  0.98364473  0.01426964  0.73404457  1.0
  Cl  Cl33  1  0.99509454  0.25387144  0.98125807  1.0
  Cl  Cl34  1  0.49118097  0.49694101  0.25591919  1.0
  Cl  Cl35  1  0.23801090  -0.00103032  0.50442038  1.0
  Cl  Cl36  1  0.24726936  0.76750832  0.75343433  1.0
  Cl  Cl37  1  0.50047591  0.00097746  0.24286211  1.0
  Cl  Cl38  1  0.74105898  0.25936662  0.24207526  1.0
  Cl  Cl39  1  0.99404726  0.49607052  0.74625719  1.0
  Cl  Cl40  1  0.25372524  0.50117915  0.48980967  1.0
  Cl  Cl41  1  0.73722910  0.99585402  0.01043933  1.0
  Cl  Cl42  1  0.24820749  0.50573249  0.00755384  1.0
  Cl  Cl43  1  0.99272840  0.99616524  0.25528751  1.0
  Cl  Cl44  1  0.50785964  0.50382792  0.74463731  1.0
  Cl  Cl45  1  0.75505901  0.99035404  0.48908791  1.0
  Cl  Cl46  1  0.00456319  0.23889544  0.50841045  1.0
  Cl  Cl47  1  0.50366807  0.75662298  0.99499656  1.0
  Cl  Cl48  1  0.50574398  0.23616761  0.00748966  1.0
  Cl  Cl49  1  0.00081429  0.76129237  0.49936375  1.0
  Cl  Cl50  1  0.75965935  0.26371701  0.74683928  1.0
  Cl  Cl51  1  0.24434224  0.73574490  0.25455288  1.0
  Cl  Cl52  1  0.75754659  0.73271838  0.25021978  1.0
  Cl  Cl53  1  0.24226839  0.24547756  0.74361593  1.0
