# generated using pymatgen
data_Li17Sc5Cl32
_symmetry_space_group_name_H-M   'P 1'
_cell_length_a   10.32724026
_cell_length_b   10.22737796
_cell_length_c   10.31011515
_cell_angle_alpha   89.89665766
_cell_angle_beta   89.64708486
_cell_angle_gamma   89.69141302
_symmetry_Int_Tables_number   1
_chemical_formula_structural   Li17Sc5Cl32
_chemical_formula_sum   'Li17 Sc5 Cl32'
_cell_volume   1088.92228239
_cell_formula_units_Z   1
loop_
 _symmetry_equiv_pos_site_id
 _symmetry_equiv_pos_as_xyz
  1  'x, y, z'
loop_
 _atom_site_type_symbol
 _atom_site_label
 _atom_site_symmetry_multiplicity
 _atom_site_fract_x
 _atom_site_fract_y
 _atom_site_fract_z
 _atom_site_occupancy
  Li  Li0  1  0.37187814  0.37239202  0.87262702  1.0
  Li  Li1  1  0.23898863  0.76021143  0.50568160  1.0
  Li  Li2  1  0.99416168  0.75070958  0.73967106  1.0
  Li  Li3  1  0.74958812  0.50545546  0.25055687  1.0
  Li  Li4  1  0.49446164  0.00603160  0.50663641  1.0
  Li  Li5  1  0.22846425  0.01632890  0.26055955  1.0
  Li  Li6  1  0.50602107  0.74949319  0.76074192  1.0
  Li  Li7  1  0.25007753  0.75062184  0.00541779  1.0
  Li  Li8  1  0.24987442  0.50482968  0.25084655  1.0
  Li  Li9  1  0.74934477  0.50594461  0.74983047  1.0
  Li  Li10  1  0.24154442  0.25697884  0.49271200  1.0
  Li  Li11  1  0.74970933  0.25025588  0.99532308  1.0
  Li  Li12  1  0.48357085  0.26102416  0.25042801  1.0
  Li  Li13  1  0.00517775  0.75042037  0.26159971  1.0
  Li  Li14  1  0.76098940  0.75003209  0.50674575  1.0
  Li  Li15  1  0.24958754  0.99414864  0.75039739  1.0
  Li  Li16  1  0.99454319  0.00501543  0.50614612  1.0
  Sc  Sc17  1  0.49509518  0.50426903  0.49537419  1.0
  Sc  Sc18  1  0.99437469  0.23945074  0.74974565  1.0
  Sc  Sc19  1  0.49441743  0.99426395  0.99424912  1.0
  Sc  Sc20  1  0.75535814  0.00428558  0.25272048  1.0
  Sc  Sc21  1  0.99509852  0.50511864  0.00624202  1.0
  Cl  Cl22  1  0.25512213  0.25208445  0.26147995  1.0
  Cl  Cl23  1  0.73442938  0.50577228  0.49127011  1.0
  Cl  Cl24  1  0.49580137  -0.00143335  0.75859763  1.0
  Cl  Cl25  1  0.00280443  0.74051902  0.99551187  1.0
  Cl  Cl26  1  0.26044312  0.00163004  0.01103391  1.0
  Cl  Cl27  1  0.75322365  0.73759906  0.73953998  1.0
  Cl  Cl28  1  0.49057987  0.26230161  0.49849315  1.0
  Cl  Cl29  1  0.99314217  0.50435384  0.24292574  1.0
  Cl  Cl30  1  0.49416745  0.74866952  0.50828267  1.0
  Cl  Cl31  1  0.75840355  0.49525961  0.00669580  1.0
  Cl  Cl32  1  0.00159084  0.00389602  0.75487803  1.0
  Cl  Cl33  1  -0.00054775  0.25825306  0.99492406  1.0
  Cl  Cl34  1  0.50092838  0.50189917  0.25656413  1.0
  Cl  Cl35  1  0.25679567  0.00319048  0.50064963  1.0
  Cl  Cl36  1  0.24476305  0.76120860  0.75379567  1.0
  Cl  Cl37  1  0.50637175  0.00062984  0.24531225  1.0
  Cl  Cl38  1  0.73930140  0.24259590  0.24228750  1.0
  Cl  Cl39  1  0.00125413  0.49200597  0.76162172  1.0
  Cl  Cl40  1  0.25774479  0.50784045  0.49495780  1.0
  Cl  Cl41  1  0.73917586  -0.00129398  0.01050979  1.0
  Cl  Cl42  1  0.23809636  0.50410472  0.01088408  1.0
  Cl  Cl43  1  0.98942807  0.00487606  0.25898434  1.0
  Cl  Cl44  1  0.50498176  0.50457236  0.73951761  1.0
  Cl  Cl45  1  0.73423928  0.00079465  0.48922821  1.0
  Cl  Cl46  1  0.00175881  0.24584382  0.51673261  1.0
  Cl  Cl47  1  0.49353453  0.75972156  0.99834126  1.0
  Cl  Cl48  1  0.50595083  0.23951754  0.00557382  1.0
  Cl  Cl49  1  0.00033054  0.76626709  0.50502178  1.0
  Cl  Cl50  1  0.76137119  0.25993639  0.76067679  1.0
  Cl  Cl51  1  0.23480657  0.75740359  0.25386461  1.0
  Cl  Cl52  1  0.76016668  0.76210284  0.25941599  1.0
  Cl  Cl53  1  0.23751341  0.24059614  0.74717472  1.0
